version 3
run General-0-20221127-19:47:43-78598
attr configname General
attr datetime 20221127-19:47:43
attr datetimef 20221127-194743
attr experiment General
attr inifile omnetpp.ini
attr iterationvars "$b1num=int(uniform(2, 5)), $b2num=int(uniform(2, 5)), $b3num=int(uniform(2, 5)), $xnum=int(uniform(1, 2))"
attr iterationvarsd b1num=int(uniform(2,_5))/b2num=int(uniform(2,_5))/b3num=int(uniform(2,_5))/xnum=int(uniform(1,_2))
attr iterationvarsf b1num=int(uniform(2,_5)),b2num=int(uniform(2,_5)),b3num=int(uniform(2,_5)),xnum=int(uniform(1,_2))-
attr measurement "$b1num=int(uniform(2, 5)), $b2num=int(uniform(2, 5)), $b3num=int(uniform(2, 5)), $xnum=int(uniform(1, 2))"
attr network Network
attr processid 78598
attr repetition 0
attr replication #0
attr resultdir results
attr runnumber 0
attr seedset 0
itervar b1num "int(uniform(2, 5))"
itervar b2num "int(uniform(2, 5))"
itervar b3num "int(uniform(2, 5))"
itervar xnum "int(uniform(1, 2))"
config image-path ../../../omnetpp-6.0.1/samples/inet4.4/images
config network Network
config sim-time-limit 300s
config output-scalar-file results/scalars.sca
config output-vector-file results/vectors.vec
config seed-0-mt 1
config *.configurator.dumpAddresses true
config *.configurator.dumpTopology true
config *.configurator.dumpLinks true
config *.configurator.dumpRoutes true
config *.configurator.config "xmldoc(\"config.xml\")"
config *.visualizer.interfaceTableVisualizer.displayInterfaceTables true
config *.visualizer.interfaceTableVisualizer.nodeFilter "\"not (*router*)\""
config *.*.ipv4.arp.typename GlobalArp
config *.*.ipv4.routingTable.netmaskRoutes "\"\""
config *.server.numApps 1
config *.server.app[0].typename ServerApp
config *.server.app[0].heartbeatThreshold 15
config *.bunker1_host_number "int(uniform(2, 5))"
config *.bunker2_host_number "int(uniform(2, 5))"
config *.bunker3_host_number "int(uniform(2, 5))"
config *.nonExist_host_number "int(uniform(1, 2))"
config *.bunker*host[*].numApps 2
config *.bunker*host[*].app[*].destAddress "\"server\""
config *.bunker*host[*].app[0].sendInterval "int(uniform(5s, 10s))"
config *.bunker*host[*].app[1].sendInterval "int(uniform(6s, 12s))"
config *.bunker*host[*].app[0].typename HeartBeatApp
config *.bunker*host[*].app[1].typename ClientApp
config *.bunker*host[*].app[1].bunker1_host_number "int(uniform(2, 5))"
config *.bunker*host[*].app[1].bunker2_host_number "int(uniform(2, 5))"
config *.bunker*host[*].app[1].bunker3_host_number "int(uniform(2, 5))"
config *.bunker*host[*].app[1].nonExist_host_number "int(uniform(1, 2))"

vector 0 Network.server.udp passedUpPk:vector(count) ETV
attr interpolationmode none
attr recordingmode vector(count)
attr source packetSentToUpper
attr title "packets passed up, count"
vector 1 Network.server.udp droppedPkWrongPort:vector(count) ETV
attr interpolationmode none
attr recordingmode vector(count)
attr source packetDropReasonIsNoPortFound(packetDropped)
attr title "packets dropped (wrong port), count"
vector 2 Network.server.udp droppedPkBadChecksum:vector(count) ETV
attr interpolationmode none
attr recordingmode vector(count)
attr source packetDropReasonIsIncorrectlyReceived(packetDropped)
attr title "packets dropped (checksum error), count"
vector 3 Network.bunker1host[0].udp passedUpPk:vector(count) ETV
attr interpolationmode none
attr recordingmode vector(count)
attr source packetSentToUpper
attr title "packets passed up, count"
vector 4 Network.bunker1host[0].udp droppedPkWrongPort:vector(count) ETV
attr interpolationmode none
attr recordingmode vector(count)
attr source packetDropReasonIsNoPortFound(packetDropped)
attr title "packets dropped (wrong port), count"
vector 5 Network.bunker1host[0].udp droppedPkBadChecksum:vector(count) ETV
attr interpolationmode none
attr recordingmode vector(count)
attr source packetDropReasonIsIncorrectlyReceived(packetDropped)
attr title "packets dropped (checksum error), count"
vector 6 Network.bunker1host[1].udp passedUpPk:vector(count) ETV
attr interpolationmode none
attr recordingmode vector(count)
attr source packetSentToUpper
attr title "packets passed up, count"
vector 7 Network.bunker1host[1].udp droppedPkWrongPort:vector(count) ETV
attr interpolationmode none
attr recordingmode vector(count)
attr source packetDropReasonIsNoPortFound(packetDropped)
attr title "packets dropped (wrong port), count"
vector 8 Network.bunker1host[1].udp droppedPkBadChecksum:vector(count) ETV
attr interpolationmode none
attr recordingmode vector(count)
attr source packetDropReasonIsIncorrectlyReceived(packetDropped)
attr title "packets dropped (checksum error), count"
vector 9 Network.bunker1host[2].udp passedUpPk:vector(count) ETV
attr interpolationmode none
attr recordingmode vector(count)
attr source packetSentToUpper
attr title "packets passed up, count"
vector 10 Network.bunker1host[2].udp droppedPkWrongPort:vector(count) ETV
attr interpolationmode none
attr recordingmode vector(count)
attr source packetDropReasonIsNoPortFound(packetDropped)
attr title "packets dropped (wrong port), count"
vector 11 Network.bunker1host[2].udp droppedPkBadChecksum:vector(count) ETV
attr interpolationmode none
attr recordingmode vector(count)
attr source packetDropReasonIsIncorrectlyReceived(packetDropped)
attr title "packets dropped (checksum error), count"
vector 12 Network.bunker2host[0].udp passedUpPk:vector(count) ETV
attr interpolationmode none
attr recordingmode vector(count)
attr source packetSentToUpper
attr title "packets passed up, count"
vector 13 Network.bunker2host[0].udp droppedPkWrongPort:vector(count) ETV
attr interpolationmode none
attr recordingmode vector(count)
attr source packetDropReasonIsNoPortFound(packetDropped)
attr title "packets dropped (wrong port), count"
vector 14 Network.bunker2host[0].udp droppedPkBadChecksum:vector(count) ETV
attr interpolationmode none
attr recordingmode vector(count)
attr source packetDropReasonIsIncorrectlyReceived(packetDropped)
attr title "packets dropped (checksum error), count"
vector 15 Network.bunker2host[1].udp passedUpPk:vector(count) ETV
attr interpolationmode none
attr recordingmode vector(count)
attr source packetSentToUpper
attr title "packets passed up, count"
vector 16 Network.bunker2host[1].udp droppedPkWrongPort:vector(count) ETV
attr interpolationmode none
attr recordingmode vector(count)
attr source packetDropReasonIsNoPortFound(packetDropped)
attr title "packets dropped (wrong port), count"
vector 17 Network.bunker2host[1].udp droppedPkBadChecksum:vector(count) ETV
attr interpolationmode none
attr recordingmode vector(count)
attr source packetDropReasonIsIncorrectlyReceived(packetDropped)
attr title "packets dropped (checksum error), count"
vector 18 Network.bunker2host[2].udp passedUpPk:vector(count) ETV
attr interpolationmode none
attr recordingmode vector(count)
attr source packetSentToUpper
attr title "packets passed up, count"
vector 19 Network.bunker2host[2].udp droppedPkWrongPort:vector(count) ETV
attr interpolationmode none
attr recordingmode vector(count)
attr source packetDropReasonIsNoPortFound(packetDropped)
attr title "packets dropped (wrong port), count"
vector 20 Network.bunker2host[2].udp droppedPkBadChecksum:vector(count) ETV
attr interpolationmode none
attr recordingmode vector(count)
attr source packetDropReasonIsIncorrectlyReceived(packetDropped)
attr title "packets dropped (checksum error), count"
vector 21 Network.bunker2host[3].udp passedUpPk:vector(count) ETV
attr interpolationmode none
attr recordingmode vector(count)
attr source packetSentToUpper
attr title "packets passed up, count"
vector 22 Network.bunker2host[3].udp droppedPkWrongPort:vector(count) ETV
attr interpolationmode none
attr recordingmode vector(count)
attr source packetDropReasonIsNoPortFound(packetDropped)
attr title "packets dropped (wrong port), count"
vector 23 Network.bunker2host[3].udp droppedPkBadChecksum:vector(count) ETV
attr interpolationmode none
attr recordingmode vector(count)
attr source packetDropReasonIsIncorrectlyReceived(packetDropped)
attr title "packets dropped (checksum error), count"
vector 24 Network.bunker3host[0].udp passedUpPk:vector(count) ETV
attr interpolationmode none
attr recordingmode vector(count)
attr source packetSentToUpper
attr title "packets passed up, count"
vector 25 Network.bunker3host[0].udp droppedPkWrongPort:vector(count) ETV
attr interpolationmode none
attr recordingmode vector(count)
attr source packetDropReasonIsNoPortFound(packetDropped)
attr title "packets dropped (wrong port), count"
vector 26 Network.bunker3host[0].udp droppedPkBadChecksum:vector(count) ETV
attr interpolationmode none
attr recordingmode vector(count)
attr source packetDropReasonIsIncorrectlyReceived(packetDropped)
attr title "packets dropped (checksum error), count"
vector 27 Network.bunker3host[1].udp passedUpPk:vector(count) ETV
attr interpolationmode none
attr recordingmode vector(count)
attr source packetSentToUpper
attr title "packets passed up, count"
vector 28 Network.bunker3host[1].udp droppedPkWrongPort:vector(count) ETV
attr interpolationmode none
attr recordingmode vector(count)
attr source packetDropReasonIsNoPortFound(packetDropped)
attr title "packets dropped (wrong port), count"
vector 29 Network.bunker3host[1].udp droppedPkBadChecksum:vector(count) ETV
attr interpolationmode none
attr recordingmode vector(count)
attr source packetDropReasonIsIncorrectlyReceived(packetDropped)
attr title "packets dropped (checksum error), count"
vector 30 Network.bunker3host[2].udp passedUpPk:vector(count) ETV
attr interpolationmode none
attr recordingmode vector(count)
attr source packetSentToUpper
attr title "packets passed up, count"
vector 31 Network.bunker3host[2].udp droppedPkWrongPort:vector(count) ETV
attr interpolationmode none
attr recordingmode vector(count)
attr source packetDropReasonIsNoPortFound(packetDropped)
attr title "packets dropped (wrong port), count"
vector 32 Network.bunker3host[2].udp droppedPkBadChecksum:vector(count) ETV
attr interpolationmode none
attr recordingmode vector(count)
attr source packetDropReasonIsIncorrectlyReceived(packetDropped)
attr title "packets dropped (checksum error), count"
vector 33 Network.bunker3host[3].udp passedUpPk:vector(count) ETV
attr interpolationmode none
attr recordingmode vector(count)
attr source packetSentToUpper
attr title "packets passed up, count"
vector 34 Network.bunker3host[3].udp droppedPkWrongPort:vector(count) ETV
attr interpolationmode none
attr recordingmode vector(count)
attr source packetDropReasonIsNoPortFound(packetDropped)
attr title "packets dropped (wrong port), count"
vector 35 Network.bunker3host[3].udp droppedPkBadChecksum:vector(count) ETV
attr interpolationmode none
attr recordingmode vector(count)
attr source packetDropReasonIsIncorrectlyReceived(packetDropped)
attr title "packets dropped (checksum error), count"
vector 36 Network.bunker3host[2].udp packetSent:vector(packetBytes) ETV
attr interpolationmode none
attr recordingmode vector(packetBytes)
attr source packetSent
attr title "packets sent, packetBytes"
vector 37 Network.bunker3host[2].ethernet encapPk:vector(packetBytes) ETV
attr interpolationmode none
attr recordingmode vector(packetBytes)
attr source encapPk
attr title "packets encapsulated, packetBytes"
vector 38 Network.bunker3host[2].eth[0].queue incomingPacketLengths:vector ETV
attr interpolationmode none
attr recordingmode vector
attr source packetLength(packetPushStarted)
attr title "incoming packet lengths"
attr unit b
vector 39 Network.bunker3host[2].eth[0].queue incomingDataRate:vector ETV
attr interpolationmode linear
attr recordingmode vector
attr source throughput(packetPushStarted)
attr title "incoming datarate"
attr unit bps
vector 40 Network.bunker3host[2].eth[0].queue queueingTime:vector ETV
attr interpolationmode none
attr recordingmode vector
attr source queueingTime(packetPulled)
attr title "queueing times"
attr unit s
vector 41 Network.bunker3host[2].eth[0].queue outgoingPacketLengths:vector ETV
attr interpolationmode none
attr recordingmode vector
attr source packetLength(packetPulled)
attr title "outgoing packet lengths"
attr unit b
vector 42 Network.bunker3host[2].eth[0].queue outgoingDataRate:vector ETV
attr interpolationmode linear
attr recordingmode vector
attr source throughput(packetPulled)
attr title "outgoing datarate"
attr unit bps
vector 43 Network.bunker3host[2].eth[0].mac packetReceivedFromUpper:vector(packetBytes) ETV
attr interpolationmode none
attr recordingmode vector(packetBytes)
attr source packetReceivedFromUpper
attr title "packet bytes from higher layer, packetBytes"
vector 44 Network.bunker3host[2].eth[0].queue queueLength:vector ETV
attr autoWarmupFilter false
attr interpolationmode sample-hold
attr recordingmode vector
attr source "warmup(atomic(constant0(packetPushEnded) + count(packetPushStarted) - count(packetPulled) - count(packetRemoved) - count(packetDropped)))"
attr title "queue length"
attr unit pk
vector 45 Network.bunker3host[2].eth[0].queue queueBitLength:vector ETV
attr autoWarmupFilter false
attr interpolationmode sample-hold
attr recordingmode vector
attr source "warmup(atomic(constant0(packetPushEnded) + sum(packetLength(packetPushStarted)) - sum(packetLength(packetPulled)) - sum(packetLength(packetRemoved)) - sum(packetLength(packetDropped))))"
attr title "queue bit length"
attr unit b
vector 46 Network.bunker3host[2].eth[0].mac txPk:vector(packetBytes) ETV
attr interpolationmode none
attr recordingmode vector(packetBytes)
attr source packetSentToLower
attr title "packets transmitted, packetBytes"
vector 47 Network.bunker3router.eth[3].mac rxPkOk:vector(packetBytes) ETV
attr interpolationmode none
attr recordingmode vector(packetBytes)
attr source rxPkOk
attr title "packets received OK, packetBytes"
vector 48 Network.bunker3router.eth[3].mac passedUpPk:vector(packetBytes) ETV
attr interpolationmode none
attr recordingmode vector(packetBytes)
attr source packetSentToUpper
attr title "packets passed to higher layer, packetBytes"
vector 49 Network.bunker3router.ethernet decapPk:vector(packetBytes) ETV
attr interpolationmode none
attr recordingmode vector(packetBytes)
attr source decapPk
attr title "packets decapsulated, packetBytes"
vector 50 Network.bunker3router.ethernet encapPk:vector(packetBytes) ETV
attr interpolationmode none
attr recordingmode vector(packetBytes)
attr source encapPk
attr title "packets encapsulated, packetBytes"
vector 51 Network.bunker3router.eth[0].queue incomingPacketLengths:vector ETV
attr interpolationmode none
attr recordingmode vector
attr source packetLength(packetPushStarted)
attr title "incoming packet lengths"
attr unit b
vector 52 Network.bunker3router.eth[0].queue incomingDataRate:vector ETV
attr interpolationmode linear
attr recordingmode vector
attr source throughput(packetPushStarted)
attr title "incoming datarate"
attr unit bps
vector 53 Network.bunker3router.eth[0].queue queueingTime:vector ETV
attr interpolationmode none
attr recordingmode vector
attr source queueingTime(packetPulled)
attr title "queueing times"
attr unit s
vector 54 Network.bunker3router.eth[0].queue outgoingPacketLengths:vector ETV
attr interpolationmode none
attr recordingmode vector
attr source packetLength(packetPulled)
attr title "outgoing packet lengths"
attr unit b
vector 55 Network.bunker3router.eth[0].queue outgoingDataRate:vector ETV
attr interpolationmode linear
attr recordingmode vector
attr source throughput(packetPulled)
attr title "outgoing datarate"
attr unit bps
vector 56 Network.bunker3router.eth[0].mac packetReceivedFromUpper:vector(packetBytes) ETV
attr interpolationmode none
attr recordingmode vector(packetBytes)
attr source packetReceivedFromUpper
attr title "packet bytes from higher layer, packetBytes"
vector 57 Network.bunker3router.eth[0].queue queueLength:vector ETV
attr autoWarmupFilter false
attr interpolationmode sample-hold
attr recordingmode vector
attr source "warmup(atomic(constant0(packetPushEnded) + count(packetPushStarted) - count(packetPulled) - count(packetRemoved) - count(packetDropped)))"
attr title "queue length"
attr unit pk
vector 58 Network.bunker3router.eth[0].queue queueBitLength:vector ETV
attr autoWarmupFilter false
attr interpolationmode sample-hold
attr recordingmode vector
attr source "warmup(atomic(constant0(packetPushEnded) + sum(packetLength(packetPushStarted)) - sum(packetLength(packetPulled)) - sum(packetLength(packetRemoved)) - sum(packetLength(packetDropped))))"
attr title "queue bit length"
attr unit b
vector 59 Network.bunker3router.eth[0].mac txPk:vector(packetBytes) ETV
attr interpolationmode none
attr recordingmode vector(packetBytes)
attr source packetSentToLower
attr title "packets transmitted, packetBytes"
vector 60 Network.mainrouter.eth[2].mac rxPkOk:vector(packetBytes) ETV
attr interpolationmode none
attr recordingmode vector(packetBytes)
attr source rxPkOk
attr title "packets received OK, packetBytes"
vector 61 Network.mainrouter.eth[2].mac passedUpPk:vector(packetBytes) ETV
attr interpolationmode none
attr recordingmode vector(packetBytes)
attr source packetSentToUpper
attr title "packets passed to higher layer, packetBytes"
vector 62 Network.mainrouter.ethernet decapPk:vector(packetBytes) ETV
attr interpolationmode none
attr recordingmode vector(packetBytes)
attr source decapPk
attr title "packets decapsulated, packetBytes"
vector 63 Network.mainrouter.ethernet encapPk:vector(packetBytes) ETV
attr interpolationmode none
attr recordingmode vector(packetBytes)
attr source encapPk
attr title "packets encapsulated, packetBytes"
vector 64 Network.mainrouter.eth[3].queue incomingPacketLengths:vector ETV
attr interpolationmode none
attr recordingmode vector
attr source packetLength(packetPushStarted)
attr title "incoming packet lengths"
attr unit b
vector 65 Network.mainrouter.eth[3].queue incomingDataRate:vector ETV
attr interpolationmode linear
attr recordingmode vector
attr source throughput(packetPushStarted)
attr title "incoming datarate"
attr unit bps
vector 66 Network.mainrouter.eth[3].queue queueingTime:vector ETV
attr interpolationmode none
attr recordingmode vector
attr source queueingTime(packetPulled)
attr title "queueing times"
attr unit s
vector 67 Network.mainrouter.eth[3].queue outgoingPacketLengths:vector ETV
attr interpolationmode none
attr recordingmode vector
attr source packetLength(packetPulled)
attr title "outgoing packet lengths"
attr unit b
vector 68 Network.mainrouter.eth[3].queue outgoingDataRate:vector ETV
attr interpolationmode linear
attr recordingmode vector
attr source throughput(packetPulled)
attr title "outgoing datarate"
attr unit bps
vector 69 Network.mainrouter.eth[3].mac packetReceivedFromUpper:vector(packetBytes) ETV
attr interpolationmode none
attr recordingmode vector(packetBytes)
attr source packetReceivedFromUpper
attr title "packet bytes from higher layer, packetBytes"
vector 70 Network.mainrouter.eth[3].queue queueLength:vector ETV
attr autoWarmupFilter false
attr interpolationmode sample-hold
attr recordingmode vector
attr source "warmup(atomic(constant0(packetPushEnded) + count(packetPushStarted) - count(packetPulled) - count(packetRemoved) - count(packetDropped)))"
attr title "queue length"
attr unit pk
vector 71 Network.mainrouter.eth[3].queue queueBitLength:vector ETV
attr autoWarmupFilter false
attr interpolationmode sample-hold
attr recordingmode vector
attr source "warmup(atomic(constant0(packetPushEnded) + sum(packetLength(packetPushStarted)) - sum(packetLength(packetPulled)) - sum(packetLength(packetRemoved)) - sum(packetLength(packetDropped))))"
attr title "queue bit length"
attr unit b
vector 72 Network.mainrouter.eth[3].mac txPk:vector(packetBytes) ETV
attr interpolationmode none
attr recordingmode vector(packetBytes)
attr source packetSentToLower
attr title "packets transmitted, packetBytes"
vector 73 Network.server.eth[0].mac rxPkOk:vector(packetBytes) ETV
attr interpolationmode none
attr recordingmode vector(packetBytes)
attr source rxPkOk
attr title "packets received OK, packetBytes"
vector 74 Network.server.eth[0].mac passedUpPk:vector(packetBytes) ETV
attr interpolationmode none
attr recordingmode vector(packetBytes)
attr source packetSentToUpper
attr title "packets passed to higher layer, packetBytes"
vector 75 Network.server.ethernet decapPk:vector(packetBytes) ETV
attr interpolationmode none
attr recordingmode vector(packetBytes)
attr source decapPk
attr title "packets decapsulated, packetBytes"
vector 76 Network.server.udp packetReceived:vector(packetBytes) ETV
attr interpolationmode none
attr recordingmode vector(packetBytes)
attr source packetReceived
attr title "packets received, packetBytes"
vector 77 Network.bunker2host[0].udp packetSent:vector(packetBytes) ETV
attr interpolationmode none
attr recordingmode vector(packetBytes)
attr source packetSent
attr title "packets sent, packetBytes"
vector 78 Network.bunker2host[1].udp packetSent:vector(packetBytes) ETV
attr interpolationmode none
attr recordingmode vector(packetBytes)
attr source packetSent
attr title "packets sent, packetBytes"
vector 79 Network.bunker2host[0].ethernet encapPk:vector(packetBytes) ETV
attr interpolationmode none
attr recordingmode vector(packetBytes)
attr source encapPk
attr title "packets encapsulated, packetBytes"
vector 80 Network.bunker2host[1].ethernet encapPk:vector(packetBytes) ETV
attr interpolationmode none
attr recordingmode vector(packetBytes)
attr source encapPk
attr title "packets encapsulated, packetBytes"
vector 81 Network.bunker2host[0].eth[0].queue incomingPacketLengths:vector ETV
attr interpolationmode none
attr recordingmode vector
attr source packetLength(packetPushStarted)
attr title "incoming packet lengths"
attr unit b
vector 82 Network.bunker2host[0].eth[0].queue incomingDataRate:vector ETV
attr interpolationmode linear
attr recordingmode vector
attr source throughput(packetPushStarted)
attr title "incoming datarate"
attr unit bps
vector 83 Network.bunker2host[0].eth[0].queue queueingTime:vector ETV
attr interpolationmode none
attr recordingmode vector
attr source queueingTime(packetPulled)
attr title "queueing times"
attr unit s
vector 84 Network.bunker2host[0].eth[0].queue outgoingPacketLengths:vector ETV
attr interpolationmode none
attr recordingmode vector
attr source packetLength(packetPulled)
attr title "outgoing packet lengths"
attr unit b
vector 85 Network.bunker2host[0].eth[0].queue outgoingDataRate:vector ETV
attr interpolationmode linear
attr recordingmode vector
attr source throughput(packetPulled)
attr title "outgoing datarate"
attr unit bps
vector 86 Network.bunker2host[0].eth[0].mac packetReceivedFromUpper:vector(packetBytes) ETV
attr interpolationmode none
attr recordingmode vector(packetBytes)
attr source packetReceivedFromUpper
attr title "packet bytes from higher layer, packetBytes"
vector 87 Network.bunker2host[0].eth[0].queue queueLength:vector ETV
attr autoWarmupFilter false
attr interpolationmode sample-hold
attr recordingmode vector
attr source "warmup(atomic(constant0(packetPushEnded) + count(packetPushStarted) - count(packetPulled) - count(packetRemoved) - count(packetDropped)))"
attr title "queue length"
attr unit pk
vector 88 Network.bunker2host[0].eth[0].queue queueBitLength:vector ETV
attr autoWarmupFilter false
attr interpolationmode sample-hold
attr recordingmode vector
attr source "warmup(atomic(constant0(packetPushEnded) + sum(packetLength(packetPushStarted)) - sum(packetLength(packetPulled)) - sum(packetLength(packetRemoved)) - sum(packetLength(packetDropped))))"
attr title "queue bit length"
attr unit b
vector 89 Network.bunker2host[1].eth[0].queue incomingPacketLengths:vector ETV
attr interpolationmode none
attr recordingmode vector
attr source packetLength(packetPushStarted)
attr title "incoming packet lengths"
attr unit b
vector 90 Network.bunker2host[1].eth[0].queue incomingDataRate:vector ETV
attr interpolationmode linear
attr recordingmode vector
attr source throughput(packetPushStarted)
attr title "incoming datarate"
attr unit bps
vector 91 Network.bunker2host[1].eth[0].queue queueingTime:vector ETV
attr interpolationmode none
attr recordingmode vector
attr source queueingTime(packetPulled)
attr title "queueing times"
attr unit s
vector 92 Network.bunker2host[1].eth[0].queue outgoingPacketLengths:vector ETV
attr interpolationmode none
attr recordingmode vector
attr source packetLength(packetPulled)
attr title "outgoing packet lengths"
attr unit b
vector 93 Network.bunker2host[1].eth[0].queue outgoingDataRate:vector ETV
attr interpolationmode linear
attr recordingmode vector
attr source throughput(packetPulled)
attr title "outgoing datarate"
attr unit bps
vector 94 Network.bunker2host[1].eth[0].mac packetReceivedFromUpper:vector(packetBytes) ETV
attr interpolationmode none
attr recordingmode vector(packetBytes)
attr source packetReceivedFromUpper
attr title "packet bytes from higher layer, packetBytes"
vector 95 Network.bunker2host[1].eth[0].queue queueLength:vector ETV
attr autoWarmupFilter false
attr interpolationmode sample-hold
attr recordingmode vector
attr source "warmup(atomic(constant0(packetPushEnded) + count(packetPushStarted) - count(packetPulled) - count(packetRemoved) - count(packetDropped)))"
attr title "queue length"
attr unit pk
vector 96 Network.bunker2host[1].eth[0].queue queueBitLength:vector ETV
attr autoWarmupFilter false
attr interpolationmode sample-hold
attr recordingmode vector
attr source "warmup(atomic(constant0(packetPushEnded) + sum(packetLength(packetPushStarted)) - sum(packetLength(packetPulled)) - sum(packetLength(packetRemoved)) - sum(packetLength(packetDropped))))"
attr title "queue bit length"
attr unit b
vector 97 Network.bunker2host[0].eth[0].mac txPk:vector(packetBytes) ETV
attr interpolationmode none
attr recordingmode vector(packetBytes)
attr source packetSentToLower
attr title "packets transmitted, packetBytes"
vector 98 Network.bunker2host[1].eth[0].mac txPk:vector(packetBytes) ETV
attr interpolationmode none
attr recordingmode vector(packetBytes)
attr source packetSentToLower
attr title "packets transmitted, packetBytes"
vector 99 Network.bunker2router.eth[1].mac rxPkOk:vector(packetBytes) ETV
attr interpolationmode none
attr recordingmode vector(packetBytes)
attr source rxPkOk
attr title "packets received OK, packetBytes"
vector 100 Network.bunker2router.eth[1].mac passedUpPk:vector(packetBytes) ETV
attr interpolationmode none
attr recordingmode vector(packetBytes)
attr source packetSentToUpper
attr title "packets passed to higher layer, packetBytes"
vector 101 Network.bunker2router.eth[2].mac rxPkOk:vector(packetBytes) ETV
attr interpolationmode none
attr recordingmode vector(packetBytes)
attr source rxPkOk
attr title "packets received OK, packetBytes"
vector 102 Network.bunker2router.eth[2].mac passedUpPk:vector(packetBytes) ETV
attr interpolationmode none
attr recordingmode vector(packetBytes)
attr source packetSentToUpper
attr title "packets passed to higher layer, packetBytes"
vector 103 Network.bunker2router.ethernet decapPk:vector(packetBytes) ETV
attr interpolationmode none
attr recordingmode vector(packetBytes)
attr source decapPk
attr title "packets decapsulated, packetBytes"
vector 104 Network.bunker2router.ethernet encapPk:vector(packetBytes) ETV
attr interpolationmode none
attr recordingmode vector(packetBytes)
attr source encapPk
attr title "packets encapsulated, packetBytes"
vector 105 Network.bunker2router.eth[0].queue incomingPacketLengths:vector ETV
attr interpolationmode none
attr recordingmode vector
attr source packetLength(packetPushStarted)
attr title "incoming packet lengths"
attr unit b
vector 106 Network.bunker2router.eth[0].queue incomingDataRate:vector ETV
attr interpolationmode linear
attr recordingmode vector
attr source throughput(packetPushStarted)
attr title "incoming datarate"
attr unit bps
vector 107 Network.bunker2router.eth[0].queue queueingTime:vector ETV
attr interpolationmode none
attr recordingmode vector
attr source queueingTime(packetPulled)
attr title "queueing times"
attr unit s
vector 108 Network.bunker2router.eth[0].queue outgoingPacketLengths:vector ETV
attr interpolationmode none
attr recordingmode vector
attr source packetLength(packetPulled)
attr title "outgoing packet lengths"
attr unit b
vector 109 Network.bunker2router.eth[0].queue outgoingDataRate:vector ETV
attr interpolationmode linear
attr recordingmode vector
attr source throughput(packetPulled)
attr title "outgoing datarate"
attr unit bps
vector 110 Network.bunker2router.eth[0].mac packetReceivedFromUpper:vector(packetBytes) ETV
attr interpolationmode none
attr recordingmode vector(packetBytes)
attr source packetReceivedFromUpper
attr title "packet bytes from higher layer, packetBytes"
vector 111 Network.bunker2router.eth[0].queue queueLength:vector ETV
attr autoWarmupFilter false
attr interpolationmode sample-hold
attr recordingmode vector
attr source "warmup(atomic(constant0(packetPushEnded) + count(packetPushStarted) - count(packetPulled) - count(packetRemoved) - count(packetDropped)))"
attr title "queue length"
attr unit pk
vector 112 Network.bunker2router.eth[0].queue queueBitLength:vector ETV
attr autoWarmupFilter false
attr interpolationmode sample-hold
attr recordingmode vector
attr source "warmup(atomic(constant0(packetPushEnded) + sum(packetLength(packetPushStarted)) - sum(packetLength(packetPulled)) - sum(packetLength(packetRemoved)) - sum(packetLength(packetDropped))))"
attr title "queue bit length"
attr unit b
vector 113 Network.bunker2router.eth[0].mac txPk:vector(packetBytes) ETV
attr interpolationmode none
attr recordingmode vector(packetBytes)
attr source packetSentToLower
attr title "packets transmitted, packetBytes"
vector 114 Network.mainrouter.eth[1].mac rxPkOk:vector(packetBytes) ETV
attr interpolationmode none
attr recordingmode vector(packetBytes)
attr source rxPkOk
attr title "packets received OK, packetBytes"
vector 115 Network.mainrouter.eth[1].mac passedUpPk:vector(packetBytes) ETV
attr interpolationmode none
attr recordingmode vector(packetBytes)
attr source packetSentToUpper
attr title "packets passed to higher layer, packetBytes"
vector 116 Network.bunker2host[2].udp packetSent:vector(packetBytes) ETV
attr interpolationmode none
attr recordingmode vector(packetBytes)
attr source packetSent
attr title "packets sent, packetBytes"
vector 117 Network.bunker2host[3].udp packetSent:vector(packetBytes) ETV
attr interpolationmode none
attr recordingmode vector(packetBytes)
attr source packetSent
attr title "packets sent, packetBytes"
vector 118 Network.bunker3host[1].udp packetSent:vector(packetBytes) ETV
attr interpolationmode none
attr recordingmode vector(packetBytes)
attr source packetSent
attr title "packets sent, packetBytes"
vector 119 Network.bunker2host[2].ethernet encapPk:vector(packetBytes) ETV
attr interpolationmode none
attr recordingmode vector(packetBytes)
attr source encapPk
attr title "packets encapsulated, packetBytes"
vector 120 Network.bunker2host[3].ethernet encapPk:vector(packetBytes) ETV
attr interpolationmode none
attr recordingmode vector(packetBytes)
attr source encapPk
attr title "packets encapsulated, packetBytes"
vector 121 Network.bunker3host[1].ethernet encapPk:vector(packetBytes) ETV
attr interpolationmode none
attr recordingmode vector(packetBytes)
attr source encapPk
attr title "packets encapsulated, packetBytes"
vector 122 Network.bunker2host[2].eth[0].queue incomingPacketLengths:vector ETV
attr interpolationmode none
attr recordingmode vector
attr source packetLength(packetPushStarted)
attr title "incoming packet lengths"
attr unit b
vector 123 Network.bunker2host[2].eth[0].queue incomingDataRate:vector ETV
attr interpolationmode linear
attr recordingmode vector
attr source throughput(packetPushStarted)
attr title "incoming datarate"
attr unit bps
vector 124 Network.bunker2host[2].eth[0].queue queueingTime:vector ETV
attr interpolationmode none
attr recordingmode vector
attr source queueingTime(packetPulled)
attr title "queueing times"
attr unit s
vector 125 Network.bunker2host[2].eth[0].queue outgoingPacketLengths:vector ETV
attr interpolationmode none
attr recordingmode vector
attr source packetLength(packetPulled)
attr title "outgoing packet lengths"
attr unit b
vector 126 Network.bunker2host[2].eth[0].queue outgoingDataRate:vector ETV
attr interpolationmode linear
attr recordingmode vector
attr source throughput(packetPulled)
attr title "outgoing datarate"
attr unit bps
vector 127 Network.bunker2host[2].eth[0].mac packetReceivedFromUpper:vector(packetBytes) ETV
attr interpolationmode none
attr recordingmode vector(packetBytes)
attr source packetReceivedFromUpper
attr title "packet bytes from higher layer, packetBytes"
vector 128 Network.bunker2host[2].eth[0].queue queueLength:vector ETV
attr autoWarmupFilter false
attr interpolationmode sample-hold
attr recordingmode vector
attr source "warmup(atomic(constant0(packetPushEnded) + count(packetPushStarted) - count(packetPulled) - count(packetRemoved) - count(packetDropped)))"
attr title "queue length"
attr unit pk
vector 129 Network.bunker2host[2].eth[0].queue queueBitLength:vector ETV
attr autoWarmupFilter false
attr interpolationmode sample-hold
attr recordingmode vector
attr source "warmup(atomic(constant0(packetPushEnded) + sum(packetLength(packetPushStarted)) - sum(packetLength(packetPulled)) - sum(packetLength(packetRemoved)) - sum(packetLength(packetDropped))))"
attr title "queue bit length"
attr unit b
vector 130 Network.bunker2host[3].eth[0].queue incomingPacketLengths:vector ETV
attr interpolationmode none
attr recordingmode vector
attr source packetLength(packetPushStarted)
attr title "incoming packet lengths"
attr unit b
vector 131 Network.bunker2host[3].eth[0].queue incomingDataRate:vector ETV
attr interpolationmode linear
attr recordingmode vector
attr source throughput(packetPushStarted)
attr title "incoming datarate"
attr unit bps
vector 132 Network.bunker2host[3].eth[0].queue queueingTime:vector ETV
attr interpolationmode none
attr recordingmode vector
attr source queueingTime(packetPulled)
attr title "queueing times"
attr unit s
vector 133 Network.bunker2host[3].eth[0].queue outgoingPacketLengths:vector ETV
attr interpolationmode none
attr recordingmode vector
attr source packetLength(packetPulled)
attr title "outgoing packet lengths"
attr unit b
vector 134 Network.bunker2host[3].eth[0].queue outgoingDataRate:vector ETV
attr interpolationmode linear
attr recordingmode vector
attr source throughput(packetPulled)
attr title "outgoing datarate"
attr unit bps
vector 135 Network.bunker2host[3].eth[0].mac packetReceivedFromUpper:vector(packetBytes) ETV
attr interpolationmode none
attr recordingmode vector(packetBytes)
attr source packetReceivedFromUpper
attr title "packet bytes from higher layer, packetBytes"
vector 136 Network.bunker2host[3].eth[0].queue queueLength:vector ETV
attr autoWarmupFilter false
attr interpolationmode sample-hold
attr recordingmode vector
attr source "warmup(atomic(constant0(packetPushEnded) + count(packetPushStarted) - count(packetPulled) - count(packetRemoved) - count(packetDropped)))"
attr title "queue length"
attr unit pk
vector 137 Network.bunker2host[3].eth[0].queue queueBitLength:vector ETV
attr autoWarmupFilter false
attr interpolationmode sample-hold
attr recordingmode vector
attr source "warmup(atomic(constant0(packetPushEnded) + sum(packetLength(packetPushStarted)) - sum(packetLength(packetPulled)) - sum(packetLength(packetRemoved)) - sum(packetLength(packetDropped))))"
attr title "queue bit length"
attr unit b
vector 138 Network.bunker3host[1].eth[0].queue incomingPacketLengths:vector ETV
attr interpolationmode none
attr recordingmode vector
attr source packetLength(packetPushStarted)
attr title "incoming packet lengths"
attr unit b
vector 139 Network.bunker3host[1].eth[0].queue incomingDataRate:vector ETV
attr interpolationmode linear
attr recordingmode vector
attr source throughput(packetPushStarted)
attr title "incoming datarate"
attr unit bps
vector 140 Network.bunker3host[1].eth[0].queue queueingTime:vector ETV
attr interpolationmode none
attr recordingmode vector
attr source queueingTime(packetPulled)
attr title "queueing times"
attr unit s
vector 141 Network.bunker3host[1].eth[0].queue outgoingPacketLengths:vector ETV
attr interpolationmode none
attr recordingmode vector
attr source packetLength(packetPulled)
attr title "outgoing packet lengths"
attr unit b
vector 142 Network.bunker3host[1].eth[0].queue outgoingDataRate:vector ETV
attr interpolationmode linear
attr recordingmode vector
attr source throughput(packetPulled)
attr title "outgoing datarate"
attr unit bps
vector 143 Network.bunker3host[1].eth[0].mac packetReceivedFromUpper:vector(packetBytes) ETV
attr interpolationmode none
attr recordingmode vector(packetBytes)
attr source packetReceivedFromUpper
attr title "packet bytes from higher layer, packetBytes"
vector 144 Network.bunker3host[1].eth[0].queue queueLength:vector ETV
attr autoWarmupFilter false
attr interpolationmode sample-hold
attr recordingmode vector
attr source "warmup(atomic(constant0(packetPushEnded) + count(packetPushStarted) - count(packetPulled) - count(packetRemoved) - count(packetDropped)))"
attr title "queue length"
attr unit pk
vector 145 Network.bunker3host[1].eth[0].queue queueBitLength:vector ETV
attr autoWarmupFilter false
attr interpolationmode sample-hold
attr recordingmode vector
attr source "warmup(atomic(constant0(packetPushEnded) + sum(packetLength(packetPushStarted)) - sum(packetLength(packetPulled)) - sum(packetLength(packetRemoved)) - sum(packetLength(packetDropped))))"
attr title "queue bit length"
attr unit b
vector 146 Network.bunker2host[2].eth[0].mac txPk:vector(packetBytes) ETV
attr interpolationmode none
attr recordingmode vector(packetBytes)
attr source packetSentToLower
attr title "packets transmitted, packetBytes"
vector 147 Network.bunker2host[3].eth[0].mac txPk:vector(packetBytes) ETV
attr interpolationmode none
attr recordingmode vector(packetBytes)
attr source packetSentToLower
attr title "packets transmitted, packetBytes"
vector 148 Network.bunker3host[1].eth[0].mac txPk:vector(packetBytes) ETV
attr interpolationmode none
attr recordingmode vector(packetBytes)
attr source packetSentToLower
attr title "packets transmitted, packetBytes"
vector 149 Network.bunker2router.eth[3].mac rxPkOk:vector(packetBytes) ETV
attr interpolationmode none
attr recordingmode vector(packetBytes)
attr source rxPkOk
attr title "packets received OK, packetBytes"
vector 150 Network.bunker2router.eth[3].mac passedUpPk:vector(packetBytes) ETV
attr interpolationmode none
attr recordingmode vector(packetBytes)
attr source packetSentToUpper
attr title "packets passed to higher layer, packetBytes"
vector 151 Network.bunker2router.eth[4].mac rxPkOk:vector(packetBytes) ETV
attr interpolationmode none
attr recordingmode vector(packetBytes)
attr source rxPkOk
attr title "packets received OK, packetBytes"
vector 152 Network.bunker2router.eth[4].mac passedUpPk:vector(packetBytes) ETV
attr interpolationmode none
attr recordingmode vector(packetBytes)
attr source packetSentToUpper
attr title "packets passed to higher layer, packetBytes"
vector 153 Network.bunker3router.eth[2].mac rxPkOk:vector(packetBytes) ETV
attr interpolationmode none
attr recordingmode vector(packetBytes)
attr source rxPkOk
attr title "packets received OK, packetBytes"
vector 154 Network.bunker3router.eth[2].mac passedUpPk:vector(packetBytes) ETV
attr interpolationmode none
attr recordingmode vector(packetBytes)
attr source packetSentToUpper
attr title "packets passed to higher layer, packetBytes"
vector 155 Network.server.app[0] unsuccessfulLookup:vector ETV
attr interpolationmode linear
attr recordingmode vector
attr source unsuccessfulLookup
attr title "Unsuccessful Lookup Count"
vector 156 Network.server.udp packetSent:vector(packetBytes) ETV
attr interpolationmode none
attr recordingmode vector(packetBytes)
attr source packetSent
attr title "packets sent, packetBytes"
vector 157 Network.server.ethernet encapPk:vector(packetBytes) ETV
attr interpolationmode none
attr recordingmode vector(packetBytes)
attr source encapPk
attr title "packets encapsulated, packetBytes"
vector 158 Network.server.eth[0].queue incomingPacketLengths:vector ETV
attr interpolationmode none
attr recordingmode vector
attr source packetLength(packetPushStarted)
attr title "incoming packet lengths"
attr unit b
vector 159 Network.server.eth[0].queue incomingDataRate:vector ETV
attr interpolationmode linear
attr recordingmode vector
attr source throughput(packetPushStarted)
attr title "incoming datarate"
attr unit bps
vector 160 Network.server.eth[0].queue queueingTime:vector ETV
attr interpolationmode none
attr recordingmode vector
attr source queueingTime(packetPulled)
attr title "queueing times"
attr unit s
vector 161 Network.server.eth[0].queue outgoingPacketLengths:vector ETV
attr interpolationmode none
attr recordingmode vector
attr source packetLength(packetPulled)
attr title "outgoing packet lengths"
attr unit b
vector 162 Network.server.eth[0].queue outgoingDataRate:vector ETV
attr interpolationmode linear
attr recordingmode vector
attr source throughput(packetPulled)
attr title "outgoing datarate"
attr unit bps
vector 163 Network.server.eth[0].mac packetReceivedFromUpper:vector(packetBytes) ETV
attr interpolationmode none
attr recordingmode vector(packetBytes)
attr source packetReceivedFromUpper
attr title "packet bytes from higher layer, packetBytes"
vector 164 Network.server.eth[0].queue queueLength:vector ETV
attr autoWarmupFilter false
attr interpolationmode sample-hold
attr recordingmode vector
attr source "warmup(atomic(constant0(packetPushEnded) + count(packetPushStarted) - count(packetPulled) - count(packetRemoved) - count(packetDropped)))"
attr title "queue length"
attr unit pk
vector 165 Network.server.eth[0].queue queueBitLength:vector ETV
attr autoWarmupFilter false
attr interpolationmode sample-hold
attr recordingmode vector
attr source "warmup(atomic(constant0(packetPushEnded) + sum(packetLength(packetPushStarted)) - sum(packetLength(packetPulled)) - sum(packetLength(packetRemoved)) - sum(packetLength(packetDropped))))"
attr title "queue bit length"
attr unit b
vector 166 Network.server.eth[0].mac txPk:vector(packetBytes) ETV
attr interpolationmode none
attr recordingmode vector(packetBytes)
attr source packetSentToLower
attr title "packets transmitted, packetBytes"
vector 167 Network.server.app[0] successfulLookup:vector ETV
attr interpolationmode linear
attr recordingmode vector
attr source successfulLookup
attr title "Successful Lookup Count"
vector 168 Network.mainrouter.eth[3].mac rxPkOk:vector(packetBytes) ETV
attr interpolationmode none
attr recordingmode vector(packetBytes)
attr source rxPkOk
attr title "packets received OK, packetBytes"
vector 169 Network.mainrouter.eth[3].mac passedUpPk:vector(packetBytes) ETV
attr interpolationmode none
attr recordingmode vector(packetBytes)
attr source packetSentToUpper
attr title "packets passed to higher layer, packetBytes"
vector 170 Network.mainrouter.eth[1].queue incomingPacketLengths:vector ETV
attr interpolationmode none
attr recordingmode vector
attr source packetLength(packetPushStarted)
attr title "incoming packet lengths"
attr unit b
vector 171 Network.mainrouter.eth[1].queue incomingDataRate:vector ETV
attr interpolationmode linear
attr recordingmode vector
attr source throughput(packetPushStarted)
attr title "incoming datarate"
attr unit bps
vector 172 Network.mainrouter.eth[1].queue queueingTime:vector ETV
attr interpolationmode none
attr recordingmode vector
attr source queueingTime(packetPulled)
attr title "queueing times"
attr unit s
vector 173 Network.mainrouter.eth[1].queue outgoingPacketLengths:vector ETV
attr interpolationmode none
attr recordingmode vector
attr source packetLength(packetPulled)
attr title "outgoing packet lengths"
attr unit b
vector 174 Network.mainrouter.eth[1].queue outgoingDataRate:vector ETV
attr interpolationmode linear
attr recordingmode vector
attr source throughput(packetPulled)
attr title "outgoing datarate"
attr unit bps
vector 175 Network.mainrouter.eth[1].mac packetReceivedFromUpper:vector(packetBytes) ETV
attr interpolationmode none
attr recordingmode vector(packetBytes)
attr source packetReceivedFromUpper
attr title "packet bytes from higher layer, packetBytes"
vector 176 Network.mainrouter.eth[1].queue queueLength:vector ETV
attr autoWarmupFilter false
attr interpolationmode sample-hold
attr recordingmode vector
attr source "warmup(atomic(constant0(packetPushEnded) + count(packetPushStarted) - count(packetPulled) - count(packetRemoved) - count(packetDropped)))"
attr title "queue length"
attr unit pk
vector 177 Network.mainrouter.eth[1].queue queueBitLength:vector ETV
attr autoWarmupFilter false
attr interpolationmode sample-hold
attr recordingmode vector
attr source "warmup(atomic(constant0(packetPushEnded) + sum(packetLength(packetPushStarted)) - sum(packetLength(packetPulled)) - sum(packetLength(packetRemoved)) - sum(packetLength(packetDropped))))"
attr title "queue bit length"
attr unit b
vector 178 Network.mainrouter.eth[1].mac txPk:vector(packetBytes) ETV
attr interpolationmode none
attr recordingmode vector(packetBytes)
attr source packetSentToLower
attr title "packets transmitted, packetBytes"
vector 179 Network.mainrouter.eth[2].queue incomingPacketLengths:vector ETV
attr interpolationmode none
attr recordingmode vector
attr source packetLength(packetPushStarted)
attr title "incoming packet lengths"
attr unit b
vector 180 Network.mainrouter.eth[2].queue incomingDataRate:vector ETV
attr interpolationmode linear
attr recordingmode vector
attr source throughput(packetPushStarted)
attr title "incoming datarate"
attr unit bps
vector 181 Network.mainrouter.eth[2].queue queueingTime:vector ETV
attr interpolationmode none
attr recordingmode vector
attr source queueingTime(packetPulled)
attr title "queueing times"
attr unit s
vector 182 Network.mainrouter.eth[2].queue outgoingPacketLengths:vector ETV
attr interpolationmode none
attr recordingmode vector
attr source packetLength(packetPulled)
attr title "outgoing packet lengths"
attr unit b
vector 183 Network.mainrouter.eth[2].queue outgoingDataRate:vector ETV
attr interpolationmode linear
attr recordingmode vector
attr source throughput(packetPulled)
attr title "outgoing datarate"
attr unit bps
vector 184 Network.mainrouter.eth[2].mac packetReceivedFromUpper:vector(packetBytes) ETV
attr interpolationmode none
attr recordingmode vector(packetBytes)
attr source packetReceivedFromUpper
attr title "packet bytes from higher layer, packetBytes"
vector 185 Network.mainrouter.eth[2].queue queueLength:vector ETV
attr autoWarmupFilter false
attr interpolationmode sample-hold
attr recordingmode vector
attr source "warmup(atomic(constant0(packetPushEnded) + count(packetPushStarted) - count(packetPulled) - count(packetRemoved) - count(packetDropped)))"
attr title "queue length"
attr unit pk
vector 186 Network.mainrouter.eth[2].queue queueBitLength:vector ETV
attr autoWarmupFilter false
attr interpolationmode sample-hold
attr recordingmode vector
attr source "warmup(atomic(constant0(packetPushEnded) + sum(packetLength(packetPushStarted)) - sum(packetLength(packetPulled)) - sum(packetLength(packetRemoved)) - sum(packetLength(packetDropped))))"
attr title "queue bit length"
attr unit b
vector 187 Network.bunker2router.eth[0].mac rxPkOk:vector(packetBytes) ETV
attr interpolationmode none
attr recordingmode vector(packetBytes)
attr source rxPkOk
attr title "packets received OK, packetBytes"
vector 188 Network.bunker2router.eth[0].mac passedUpPk:vector(packetBytes) ETV
attr interpolationmode none
attr recordingmode vector(packetBytes)
attr source packetSentToUpper
attr title "packets passed to higher layer, packetBytes"
vector 189 Network.bunker2router.eth[3].queue incomingPacketLengths:vector ETV
attr interpolationmode none
attr recordingmode vector
attr source packetLength(packetPushStarted)
attr title "incoming packet lengths"
attr unit b
vector 190 Network.bunker2router.eth[3].queue incomingDataRate:vector ETV
attr interpolationmode linear
attr recordingmode vector
attr source throughput(packetPushStarted)
attr title "incoming datarate"
attr unit bps
vector 191 Network.bunker2router.eth[3].queue queueingTime:vector ETV
attr interpolationmode none
attr recordingmode vector
attr source queueingTime(packetPulled)
attr title "queueing times"
attr unit s
vector 192 Network.bunker2router.eth[3].queue outgoingPacketLengths:vector ETV
attr interpolationmode none
attr recordingmode vector
attr source packetLength(packetPulled)
attr title "outgoing packet lengths"
attr unit b
vector 193 Network.bunker2router.eth[3].queue outgoingDataRate:vector ETV
attr interpolationmode linear
attr recordingmode vector
attr source throughput(packetPulled)
attr title "outgoing datarate"
attr unit bps
vector 194 Network.bunker2router.eth[3].mac packetReceivedFromUpper:vector(packetBytes) ETV
attr interpolationmode none
attr recordingmode vector(packetBytes)
attr source packetReceivedFromUpper
attr title "packet bytes from higher layer, packetBytes"
vector 195 Network.bunker2router.eth[3].queue queueLength:vector ETV
attr autoWarmupFilter false
attr interpolationmode sample-hold
attr recordingmode vector
attr source "warmup(atomic(constant0(packetPushEnded) + count(packetPushStarted) - count(packetPulled) - count(packetRemoved) - count(packetDropped)))"
attr title "queue length"
attr unit pk
vector 196 Network.bunker2router.eth[3].queue queueBitLength:vector ETV
attr autoWarmupFilter false
attr interpolationmode sample-hold
attr recordingmode vector
attr source "warmup(atomic(constant0(packetPushEnded) + sum(packetLength(packetPushStarted)) - sum(packetLength(packetPulled)) - sum(packetLength(packetRemoved)) - sum(packetLength(packetDropped))))"
attr title "queue bit length"
attr unit b
vector 197 Network.mainrouter.eth[2].mac txPk:vector(packetBytes) ETV
attr interpolationmode none
attr recordingmode vector(packetBytes)
attr source packetSentToLower
attr title "packets transmitted, packetBytes"
vector 198 Network.bunker2router.eth[3].mac txPk:vector(packetBytes) ETV
attr interpolationmode none
attr recordingmode vector(packetBytes)
attr source packetSentToLower
attr title "packets transmitted, packetBytes"
vector 199 Network.bunker3router.eth[0].mac rxPkOk:vector(packetBytes) ETV
attr interpolationmode none
attr recordingmode vector(packetBytes)
attr source rxPkOk
attr title "packets received OK, packetBytes"
vector 200 Network.bunker3router.eth[0].mac passedUpPk:vector(packetBytes) ETV
attr interpolationmode none
attr recordingmode vector(packetBytes)
attr source packetSentToUpper
attr title "packets passed to higher layer, packetBytes"
vector 201 Network.bunker3router.eth[2].queue incomingPacketLengths:vector ETV
attr interpolationmode none
attr recordingmode vector
attr source packetLength(packetPushStarted)
attr title "incoming packet lengths"
attr unit b
vector 202 Network.bunker3router.eth[2].queue incomingDataRate:vector ETV
attr interpolationmode linear
attr recordingmode vector
attr source throughput(packetPushStarted)
attr title "incoming datarate"
attr unit bps
vector 203 Network.bunker3router.eth[2].queue queueingTime:vector ETV
attr interpolationmode none
attr recordingmode vector
attr source queueingTime(packetPulled)
attr title "queueing times"
attr unit s
vector 204 Network.bunker3router.eth[2].queue outgoingPacketLengths:vector ETV
attr interpolationmode none
attr recordingmode vector
attr source packetLength(packetPulled)
attr title "outgoing packet lengths"
attr unit b
vector 205 Network.bunker3router.eth[2].queue outgoingDataRate:vector ETV
attr interpolationmode linear
attr recordingmode vector
attr source throughput(packetPulled)
attr title "outgoing datarate"
attr unit bps
vector 206 Network.bunker3router.eth[2].mac packetReceivedFromUpper:vector(packetBytes) ETV
attr interpolationmode none
attr recordingmode vector(packetBytes)
attr source packetReceivedFromUpper
attr title "packet bytes from higher layer, packetBytes"
vector 207 Network.bunker3router.eth[2].queue queueLength:vector ETV
attr autoWarmupFilter false
attr interpolationmode sample-hold
attr recordingmode vector
attr source "warmup(atomic(constant0(packetPushEnded) + count(packetPushStarted) - count(packetPulled) - count(packetRemoved) - count(packetDropped)))"
attr title "queue length"
attr unit pk
vector 208 Network.bunker3router.eth[2].queue queueBitLength:vector ETV
attr autoWarmupFilter false
attr interpolationmode sample-hold
attr recordingmode vector
attr source "warmup(atomic(constant0(packetPushEnded) + sum(packetLength(packetPushStarted)) - sum(packetLength(packetPulled)) - sum(packetLength(packetRemoved)) - sum(packetLength(packetDropped))))"
attr title "queue bit length"
attr unit b
vector 209 Network.bunker2host[2].eth[0].mac rxPkOk:vector(packetBytes) ETV
attr interpolationmode none
attr recordingmode vector(packetBytes)
attr source rxPkOk
attr title "packets received OK, packetBytes"
vector 210 Network.bunker2host[2].eth[0].mac passedUpPk:vector(packetBytes) ETV
attr interpolationmode none
attr recordingmode vector(packetBytes)
attr source packetSentToUpper
attr title "packets passed to higher layer, packetBytes"
vector 211 Network.bunker2host[2].ethernet decapPk:vector(packetBytes) ETV
attr interpolationmode none
attr recordingmode vector(packetBytes)
attr source decapPk
attr title "packets decapsulated, packetBytes"
vector 212 Network.bunker2host[2].udp packetReceived:vector(packetBytes) ETV
attr interpolationmode none
attr recordingmode vector(packetBytes)
attr source packetReceived
attr title "packets received, packetBytes"
vector 213 Network.bunker3router.eth[2].mac txPk:vector(packetBytes) ETV
attr interpolationmode none
attr recordingmode vector(packetBytes)
attr source packetSentToLower
attr title "packets transmitted, packetBytes"
vector 214 Network.bunker2router.eth[4].queue incomingPacketLengths:vector ETV
attr interpolationmode none
attr recordingmode vector
attr source packetLength(packetPushStarted)
attr title "incoming packet lengths"
attr unit b
vector 215 Network.bunker2router.eth[4].queue incomingDataRate:vector ETV
attr interpolationmode linear
attr recordingmode vector
attr source throughput(packetPushStarted)
attr title "incoming datarate"
attr unit bps
vector 216 Network.bunker2router.eth[4].queue queueingTime:vector ETV
attr interpolationmode none
attr recordingmode vector
attr source queueingTime(packetPulled)
attr title "queueing times"
attr unit s
vector 217 Network.bunker2router.eth[4].queue outgoingPacketLengths:vector ETV
attr interpolationmode none
attr recordingmode vector
attr source packetLength(packetPulled)
attr title "outgoing packet lengths"
attr unit b
vector 218 Network.bunker2router.eth[4].queue outgoingDataRate:vector ETV
attr interpolationmode linear
attr recordingmode vector
attr source throughput(packetPulled)
attr title "outgoing datarate"
attr unit bps
vector 219 Network.bunker2router.eth[4].mac packetReceivedFromUpper:vector(packetBytes) ETV
attr interpolationmode none
attr recordingmode vector(packetBytes)
attr source packetReceivedFromUpper
attr title "packet bytes from higher layer, packetBytes"
vector 220 Network.bunker2router.eth[4].queue queueLength:vector ETV
attr autoWarmupFilter false
attr interpolationmode sample-hold
attr recordingmode vector
attr source "warmup(atomic(constant0(packetPushEnded) + count(packetPushStarted) - count(packetPulled) - count(packetRemoved) - count(packetDropped)))"
attr title "queue length"
attr unit pk
vector 221 Network.bunker2router.eth[4].queue queueBitLength:vector ETV
attr autoWarmupFilter false
attr interpolationmode sample-hold
attr recordingmode vector
attr source "warmup(atomic(constant0(packetPushEnded) + sum(packetLength(packetPushStarted)) - sum(packetLength(packetPulled)) - sum(packetLength(packetRemoved)) - sum(packetLength(packetDropped))))"
attr title "queue bit length"
attr unit b
vector 222 Network.bunker3host[1].eth[0].mac rxPkOk:vector(packetBytes) ETV
attr interpolationmode none
attr recordingmode vector(packetBytes)
attr source rxPkOk
attr title "packets received OK, packetBytes"
vector 223 Network.bunker3host[1].eth[0].mac passedUpPk:vector(packetBytes) ETV
attr interpolationmode none
attr recordingmode vector(packetBytes)
attr source packetSentToUpper
attr title "packets passed to higher layer, packetBytes"
vector 224 Network.bunker3host[1].ethernet decapPk:vector(packetBytes) ETV
attr interpolationmode none
attr recordingmode vector(packetBytes)
attr source decapPk
attr title "packets decapsulated, packetBytes"
vector 225 Network.bunker3host[1].udp packetReceived:vector(packetBytes) ETV
attr interpolationmode none
attr recordingmode vector(packetBytes)
attr source packetReceived
attr title "packets received, packetBytes"
vector 226 Network.bunker3host[1].app[1] chunkLength:vector ETV
attr interpolationmode none
attr recordingmode vector
attr source chunkLength
attr title "Chunk Length"
vector 227 Network.bunker2router.eth[4].mac txPk:vector(packetBytes) ETV
attr interpolationmode none
attr recordingmode vector(packetBytes)
attr source packetSentToLower
attr title "packets transmitted, packetBytes"
vector 228 Network.bunker2host[3].eth[0].mac rxPkOk:vector(packetBytes) ETV
attr interpolationmode none
attr recordingmode vector(packetBytes)
attr source rxPkOk
attr title "packets received OK, packetBytes"
vector 229 Network.bunker2host[3].eth[0].mac passedUpPk:vector(packetBytes) ETV
attr interpolationmode none
attr recordingmode vector(packetBytes)
attr source packetSentToUpper
attr title "packets passed to higher layer, packetBytes"
vector 230 Network.bunker2host[3].ethernet decapPk:vector(packetBytes) ETV
attr interpolationmode none
attr recordingmode vector(packetBytes)
attr source decapPk
attr title "packets decapsulated, packetBytes"
vector 231 Network.bunker2host[3].udp packetReceived:vector(packetBytes) ETV
attr interpolationmode none
attr recordingmode vector(packetBytes)
attr source packetReceived
attr title "packets received, packetBytes"
vector 232 Network.bunker2host[3].app[1] chunkLength:vector ETV
attr interpolationmode none
attr recordingmode vector
attr source chunkLength
attr title "Chunk Length"
vector 233 Network.bunker2router.eth[2].queue incomingPacketLengths:vector ETV
attr interpolationmode none
attr recordingmode vector
attr source packetLength(packetPushStarted)
attr title "incoming packet lengths"
attr unit b
vector 234 Network.bunker2router.eth[2].queue incomingDataRate:vector ETV
attr interpolationmode linear
attr recordingmode vector
attr source throughput(packetPushStarted)
attr title "incoming datarate"
attr unit bps
vector 235 Network.bunker2router.eth[2].queue queueingTime:vector ETV
attr interpolationmode none
attr recordingmode vector
attr source queueingTime(packetPulled)
attr title "queueing times"
attr unit s
vector 236 Network.bunker2router.eth[2].queue outgoingPacketLengths:vector ETV
attr interpolationmode none
attr recordingmode vector
attr source packetLength(packetPulled)
attr title "outgoing packet lengths"
attr unit b
vector 237 Network.bunker2router.eth[2].queue outgoingDataRate:vector ETV
attr interpolationmode linear
attr recordingmode vector
attr source throughput(packetPulled)
attr title "outgoing datarate"
attr unit bps
vector 238 Network.bunker2router.eth[2].mac packetReceivedFromUpper:vector(packetBytes) ETV
attr interpolationmode none
attr recordingmode vector(packetBytes)
attr source packetReceivedFromUpper
attr title "packet bytes from higher layer, packetBytes"
vector 239 Network.bunker2router.eth[2].queue queueLength:vector ETV
attr autoWarmupFilter false
attr interpolationmode sample-hold
attr recordingmode vector
attr source "warmup(atomic(constant0(packetPushEnded) + count(packetPushStarted) - count(packetPulled) - count(packetRemoved) - count(packetDropped)))"
attr title "queue length"
attr unit pk
vector 240 Network.bunker2router.eth[2].queue queueBitLength:vector ETV
attr autoWarmupFilter false
attr interpolationmode sample-hold
attr recordingmode vector
attr source "warmup(atomic(constant0(packetPushEnded) + sum(packetLength(packetPushStarted)) - sum(packetLength(packetPulled)) - sum(packetLength(packetRemoved)) - sum(packetLength(packetDropped))))"
attr title "queue bit length"
attr unit b
vector 241 Network.bunker2router.eth[2].mac txPk:vector(packetBytes) ETV
attr interpolationmode none
attr recordingmode vector(packetBytes)
attr source packetSentToLower
attr title "packets transmitted, packetBytes"
vector 242 Network.bunker2host[1].eth[0].mac rxPkOk:vector(packetBytes) ETV
attr interpolationmode none
attr recordingmode vector(packetBytes)
attr source rxPkOk
attr title "packets received OK, packetBytes"
vector 243 Network.bunker2host[1].eth[0].mac passedUpPk:vector(packetBytes) ETV
attr interpolationmode none
attr recordingmode vector(packetBytes)
attr source packetSentToUpper
attr title "packets passed to higher layer, packetBytes"
vector 244 Network.bunker2host[1].ethernet decapPk:vector(packetBytes) ETV
attr interpolationmode none
attr recordingmode vector(packetBytes)
attr source decapPk
attr title "packets decapsulated, packetBytes"
vector 245 Network.bunker2host[1].udp packetReceived:vector(packetBytes) ETV
attr interpolationmode none
attr recordingmode vector(packetBytes)
attr source packetReceived
attr title "packets received, packetBytes"
vector 246 Network.bunker1host[1].udp packetSent:vector(packetBytes) ETV
attr interpolationmode none
attr recordingmode vector(packetBytes)
attr source packetSent
attr title "packets sent, packetBytes"
vector 247 Network.bunker1host[2].udp packetSent:vector(packetBytes) ETV
attr interpolationmode none
attr recordingmode vector(packetBytes)
attr source packetSent
attr title "packets sent, packetBytes"
vector 248 Network.bunker1host[1].ethernet encapPk:vector(packetBytes) ETV
attr interpolationmode none
attr recordingmode vector(packetBytes)
attr source encapPk
attr title "packets encapsulated, packetBytes"
vector 249 Network.bunker1host[2].ethernet encapPk:vector(packetBytes) ETV
attr interpolationmode none
attr recordingmode vector(packetBytes)
attr source encapPk
attr title "packets encapsulated, packetBytes"
vector 250 Network.bunker1host[1].eth[0].queue incomingPacketLengths:vector ETV
attr interpolationmode none
attr recordingmode vector
attr source packetLength(packetPushStarted)
attr title "incoming packet lengths"
attr unit b
vector 251 Network.bunker1host[1].eth[0].queue incomingDataRate:vector ETV
attr interpolationmode linear
attr recordingmode vector
attr source throughput(packetPushStarted)
attr title "incoming datarate"
attr unit bps
vector 252 Network.bunker1host[1].eth[0].queue queueingTime:vector ETV
attr interpolationmode none
attr recordingmode vector
attr source queueingTime(packetPulled)
attr title "queueing times"
attr unit s
vector 253 Network.bunker1host[1].eth[0].queue outgoingPacketLengths:vector ETV
attr interpolationmode none
attr recordingmode vector
attr source packetLength(packetPulled)
attr title "outgoing packet lengths"
attr unit b
vector 254 Network.bunker1host[1].eth[0].queue outgoingDataRate:vector ETV
attr interpolationmode linear
attr recordingmode vector
attr source throughput(packetPulled)
attr title "outgoing datarate"
attr unit bps
vector 255 Network.bunker1host[1].eth[0].mac packetReceivedFromUpper:vector(packetBytes) ETV
attr interpolationmode none
attr recordingmode vector(packetBytes)
attr source packetReceivedFromUpper
attr title "packet bytes from higher layer, packetBytes"
vector 256 Network.bunker1host[1].eth[0].queue queueLength:vector ETV
attr autoWarmupFilter false
attr interpolationmode sample-hold
attr recordingmode vector
attr source "warmup(atomic(constant0(packetPushEnded) + count(packetPushStarted) - count(packetPulled) - count(packetRemoved) - count(packetDropped)))"
attr title "queue length"
attr unit pk
vector 257 Network.bunker1host[1].eth[0].queue queueBitLength:vector ETV
attr autoWarmupFilter false
attr interpolationmode sample-hold
attr recordingmode vector
attr source "warmup(atomic(constant0(packetPushEnded) + sum(packetLength(packetPushStarted)) - sum(packetLength(packetPulled)) - sum(packetLength(packetRemoved)) - sum(packetLength(packetDropped))))"
attr title "queue bit length"
attr unit b
vector 258 Network.bunker1host[2].eth[0].queue incomingPacketLengths:vector ETV
attr interpolationmode none
attr recordingmode vector
attr source packetLength(packetPushStarted)
attr title "incoming packet lengths"
attr unit b
vector 259 Network.bunker1host[2].eth[0].queue incomingDataRate:vector ETV
attr interpolationmode linear
attr recordingmode vector
attr source throughput(packetPushStarted)
attr title "incoming datarate"
attr unit bps
vector 260 Network.bunker1host[2].eth[0].queue queueingTime:vector ETV
attr interpolationmode none
attr recordingmode vector
attr source queueingTime(packetPulled)
attr title "queueing times"
attr unit s
vector 261 Network.bunker1host[2].eth[0].queue outgoingPacketLengths:vector ETV
attr interpolationmode none
attr recordingmode vector
attr source packetLength(packetPulled)
attr title "outgoing packet lengths"
attr unit b
vector 262 Network.bunker1host[2].eth[0].queue outgoingDataRate:vector ETV
attr interpolationmode linear
attr recordingmode vector
attr source throughput(packetPulled)
attr title "outgoing datarate"
attr unit bps
vector 263 Network.bunker1host[2].eth[0].mac packetReceivedFromUpper:vector(packetBytes) ETV
attr interpolationmode none
attr recordingmode vector(packetBytes)
attr source packetReceivedFromUpper
attr title "packet bytes from higher layer, packetBytes"
vector 264 Network.bunker1host[2].eth[0].queue queueLength:vector ETV
attr autoWarmupFilter false
attr interpolationmode sample-hold
attr recordingmode vector
attr source "warmup(atomic(constant0(packetPushEnded) + count(packetPushStarted) - count(packetPulled) - count(packetRemoved) - count(packetDropped)))"
attr title "queue length"
attr unit pk
vector 265 Network.bunker1host[2].eth[0].queue queueBitLength:vector ETV
attr autoWarmupFilter false
attr interpolationmode sample-hold
attr recordingmode vector
attr source "warmup(atomic(constant0(packetPushEnded) + sum(packetLength(packetPushStarted)) - sum(packetLength(packetPulled)) - sum(packetLength(packetRemoved)) - sum(packetLength(packetDropped))))"
attr title "queue bit length"
attr unit b
vector 266 Network.bunker1host[1].eth[0].mac txPk:vector(packetBytes) ETV
attr interpolationmode none
attr recordingmode vector(packetBytes)
attr source packetSentToLower
attr title "packets transmitted, packetBytes"
vector 267 Network.bunker1host[2].eth[0].mac txPk:vector(packetBytes) ETV
attr interpolationmode none
attr recordingmode vector(packetBytes)
attr source packetSentToLower
attr title "packets transmitted, packetBytes"
vector 268 Network.bunker1router.eth[2].mac rxPkOk:vector(packetBytes) ETV
attr interpolationmode none
attr recordingmode vector(packetBytes)
attr source rxPkOk
attr title "packets received OK, packetBytes"
vector 269 Network.bunker1router.eth[2].mac passedUpPk:vector(packetBytes) ETV
attr interpolationmode none
attr recordingmode vector(packetBytes)
attr source packetSentToUpper
attr title "packets passed to higher layer, packetBytes"
vector 270 Network.bunker1router.eth[3].mac rxPkOk:vector(packetBytes) ETV
attr interpolationmode none
attr recordingmode vector(packetBytes)
attr source rxPkOk
attr title "packets received OK, packetBytes"
vector 271 Network.bunker1router.eth[3].mac passedUpPk:vector(packetBytes) ETV
attr interpolationmode none
attr recordingmode vector(packetBytes)
attr source packetSentToUpper
attr title "packets passed to higher layer, packetBytes"
vector 272 Network.bunker1router.ethernet decapPk:vector(packetBytes) ETV
attr interpolationmode none
attr recordingmode vector(packetBytes)
attr source decapPk
attr title "packets decapsulated, packetBytes"
vector 273 Network.bunker1router.ethernet encapPk:vector(packetBytes) ETV
attr interpolationmode none
attr recordingmode vector(packetBytes)
attr source encapPk
attr title "packets encapsulated, packetBytes"
vector 274 Network.bunker1router.eth[0].queue incomingPacketLengths:vector ETV
attr interpolationmode none
attr recordingmode vector
attr source packetLength(packetPushStarted)
attr title "incoming packet lengths"
attr unit b
vector 275 Network.bunker1router.eth[0].queue incomingDataRate:vector ETV
attr interpolationmode linear
attr recordingmode vector
attr source throughput(packetPushStarted)
attr title "incoming datarate"
attr unit bps
vector 276 Network.bunker1router.eth[0].queue queueingTime:vector ETV
attr interpolationmode none
attr recordingmode vector
attr source queueingTime(packetPulled)
attr title "queueing times"
attr unit s
vector 277 Network.bunker1router.eth[0].queue outgoingPacketLengths:vector ETV
attr interpolationmode none
attr recordingmode vector
attr source packetLength(packetPulled)
attr title "outgoing packet lengths"
attr unit b
vector 278 Network.bunker1router.eth[0].queue outgoingDataRate:vector ETV
attr interpolationmode linear
attr recordingmode vector
attr source throughput(packetPulled)
attr title "outgoing datarate"
attr unit bps
vector 279 Network.bunker1router.eth[0].mac packetReceivedFromUpper:vector(packetBytes) ETV
attr interpolationmode none
attr recordingmode vector(packetBytes)
attr source packetReceivedFromUpper
attr title "packet bytes from higher layer, packetBytes"
vector 280 Network.bunker1router.eth[0].queue queueLength:vector ETV
attr autoWarmupFilter false
attr interpolationmode sample-hold
attr recordingmode vector
attr source "warmup(atomic(constant0(packetPushEnded) + count(packetPushStarted) - count(packetPulled) - count(packetRemoved) - count(packetDropped)))"
attr title "queue length"
attr unit pk
vector 281 Network.bunker1router.eth[0].queue queueBitLength:vector ETV
attr autoWarmupFilter false
attr interpolationmode sample-hold
attr recordingmode vector
attr source "warmup(atomic(constant0(packetPushEnded) + sum(packetLength(packetPushStarted)) - sum(packetLength(packetPulled)) - sum(packetLength(packetRemoved)) - sum(packetLength(packetDropped))))"
attr title "queue bit length"
attr unit b
vector 282 Network.bunker1router.eth[0].mac txPk:vector(packetBytes) ETV
attr interpolationmode none
attr recordingmode vector(packetBytes)
attr source packetSentToLower
attr title "packets transmitted, packetBytes"
vector 283 Network.mainrouter.eth[0].mac rxPkOk:vector(packetBytes) ETV
attr interpolationmode none
attr recordingmode vector(packetBytes)
attr source rxPkOk
attr title "packets received OK, packetBytes"
vector 284 Network.mainrouter.eth[0].mac passedUpPk:vector(packetBytes) ETV
attr interpolationmode none
attr recordingmode vector(packetBytes)
attr source packetSentToUpper
attr title "packets passed to higher layer, packetBytes"
vector 285 Network.mainrouter.eth[0].queue incomingPacketLengths:vector ETV
attr interpolationmode none
attr recordingmode vector
attr source packetLength(packetPushStarted)
attr title "incoming packet lengths"
attr unit b
vector 286 Network.mainrouter.eth[0].queue incomingDataRate:vector ETV
attr interpolationmode linear
attr recordingmode vector
attr source throughput(packetPushStarted)
attr title "incoming datarate"
attr unit bps
vector 287 Network.mainrouter.eth[0].queue queueingTime:vector ETV
attr interpolationmode none
attr recordingmode vector
attr source queueingTime(packetPulled)
attr title "queueing times"
attr unit s
vector 288 Network.mainrouter.eth[0].queue outgoingPacketLengths:vector ETV
attr interpolationmode none
attr recordingmode vector
attr source packetLength(packetPulled)
attr title "outgoing packet lengths"
attr unit b
vector 289 Network.mainrouter.eth[0].queue outgoingDataRate:vector ETV
attr interpolationmode linear
attr recordingmode vector
attr source throughput(packetPulled)
attr title "outgoing datarate"
attr unit bps
vector 290 Network.mainrouter.eth[0].mac packetReceivedFromUpper:vector(packetBytes) ETV
attr interpolationmode none
attr recordingmode vector(packetBytes)
attr source packetReceivedFromUpper
attr title "packet bytes from higher layer, packetBytes"
vector 291 Network.mainrouter.eth[0].queue queueLength:vector ETV
attr autoWarmupFilter false
attr interpolationmode sample-hold
attr recordingmode vector
attr source "warmup(atomic(constant0(packetPushEnded) + count(packetPushStarted) - count(packetPulled) - count(packetRemoved) - count(packetDropped)))"
attr title "queue length"
attr unit pk
vector 292 Network.mainrouter.eth[0].queue queueBitLength:vector ETV
attr autoWarmupFilter false
attr interpolationmode sample-hold
attr recordingmode vector
attr source "warmup(atomic(constant0(packetPushEnded) + sum(packetLength(packetPushStarted)) - sum(packetLength(packetPulled)) - sum(packetLength(packetRemoved)) - sum(packetLength(packetDropped))))"
attr title "queue bit length"
attr unit b
vector 293 Network.mainrouter.eth[0].mac txPk:vector(packetBytes) ETV
attr interpolationmode none
attr recordingmode vector(packetBytes)
attr source packetSentToLower
attr title "packets transmitted, packetBytes"
vector 294 Network.bunker1router.eth[0].mac rxPkOk:vector(packetBytes) ETV
attr interpolationmode none
attr recordingmode vector(packetBytes)
attr source rxPkOk
attr title "packets received OK, packetBytes"
vector 295 Network.bunker1router.eth[0].mac passedUpPk:vector(packetBytes) ETV
attr interpolationmode none
attr recordingmode vector(packetBytes)
attr source packetSentToUpper
attr title "packets passed to higher layer, packetBytes"
vector 296 Network.bunker1router.eth[2].queue incomingPacketLengths:vector ETV
attr interpolationmode none
attr recordingmode vector
attr source packetLength(packetPushStarted)
attr title "incoming packet lengths"
attr unit b
vector 297 Network.bunker1router.eth[2].queue incomingDataRate:vector ETV
attr interpolationmode linear
attr recordingmode vector
attr source throughput(packetPushStarted)
attr title "incoming datarate"
attr unit bps
vector 298 Network.bunker1router.eth[2].queue queueingTime:vector ETV
attr interpolationmode none
attr recordingmode vector
attr source queueingTime(packetPulled)
attr title "queueing times"
attr unit s
vector 299 Network.bunker1router.eth[2].queue outgoingPacketLengths:vector ETV
attr interpolationmode none
attr recordingmode vector
attr source packetLength(packetPulled)
attr title "outgoing packet lengths"
attr unit b
vector 300 Network.bunker1router.eth[2].queue outgoingDataRate:vector ETV
attr interpolationmode linear
attr recordingmode vector
attr source throughput(packetPulled)
attr title "outgoing datarate"
attr unit bps
vector 301 Network.bunker1router.eth[2].mac packetReceivedFromUpper:vector(packetBytes) ETV
attr interpolationmode none
attr recordingmode vector(packetBytes)
attr source packetReceivedFromUpper
attr title "packet bytes from higher layer, packetBytes"
vector 302 Network.bunker1router.eth[2].queue queueLength:vector ETV
attr autoWarmupFilter false
attr interpolationmode sample-hold
attr recordingmode vector
attr source "warmup(atomic(constant0(packetPushEnded) + count(packetPushStarted) - count(packetPulled) - count(packetRemoved) - count(packetDropped)))"
attr title "queue length"
attr unit pk
vector 303 Network.bunker1router.eth[2].queue queueBitLength:vector ETV
attr autoWarmupFilter false
attr interpolationmode sample-hold
attr recordingmode vector
attr source "warmup(atomic(constant0(packetPushEnded) + sum(packetLength(packetPushStarted)) - sum(packetLength(packetPulled)) - sum(packetLength(packetRemoved)) - sum(packetLength(packetDropped))))"
attr title "queue bit length"
attr unit b
vector 304 Network.bunker1router.eth[2].mac txPk:vector(packetBytes) ETV
attr interpolationmode none
attr recordingmode vector(packetBytes)
attr source packetSentToLower
attr title "packets transmitted, packetBytes"
vector 305 Network.bunker1host[1].eth[0].mac rxPkOk:vector(packetBytes) ETV
attr interpolationmode none
attr recordingmode vector(packetBytes)
attr source rxPkOk
attr title "packets received OK, packetBytes"
vector 306 Network.bunker1host[1].eth[0].mac passedUpPk:vector(packetBytes) ETV
attr interpolationmode none
attr recordingmode vector(packetBytes)
attr source packetSentToUpper
attr title "packets passed to higher layer, packetBytes"
vector 307 Network.bunker1host[1].ethernet decapPk:vector(packetBytes) ETV
attr interpolationmode none
attr recordingmode vector(packetBytes)
attr source decapPk
attr title "packets decapsulated, packetBytes"
vector 308 Network.bunker1host[1].udp packetReceived:vector(packetBytes) ETV
attr interpolationmode none
attr recordingmode vector(packetBytes)
attr source packetReceived
attr title "packets received, packetBytes"
vector 309 Network.bunker3router.eth[3].queue incomingPacketLengths:vector ETV
attr interpolationmode none
attr recordingmode vector
attr source packetLength(packetPushStarted)
attr title "incoming packet lengths"
attr unit b
vector 310 Network.bunker3router.eth[3].queue incomingDataRate:vector ETV
attr interpolationmode linear
attr recordingmode vector
attr source throughput(packetPushStarted)
attr title "incoming datarate"
attr unit bps
vector 311 Network.bunker3router.eth[3].queue queueingTime:vector ETV
attr interpolationmode none
attr recordingmode vector
attr source queueingTime(packetPulled)
attr title "queueing times"
attr unit s
vector 312 Network.bunker3router.eth[3].queue outgoingPacketLengths:vector ETV
attr interpolationmode none
attr recordingmode vector
attr source packetLength(packetPulled)
attr title "outgoing packet lengths"
attr unit b
vector 313 Network.bunker3router.eth[3].queue outgoingDataRate:vector ETV
attr interpolationmode linear
attr recordingmode vector
attr source throughput(packetPulled)
attr title "outgoing datarate"
attr unit bps
vector 314 Network.bunker3router.eth[3].mac packetReceivedFromUpper:vector(packetBytes) ETV
attr interpolationmode none
attr recordingmode vector(packetBytes)
attr source packetReceivedFromUpper
attr title "packet bytes from higher layer, packetBytes"
vector 315 Network.bunker3router.eth[3].queue queueLength:vector ETV
attr autoWarmupFilter false
attr interpolationmode sample-hold
attr recordingmode vector
attr source "warmup(atomic(constant0(packetPushEnded) + count(packetPushStarted) - count(packetPulled) - count(packetRemoved) - count(packetDropped)))"
attr title "queue length"
attr unit pk
vector 316 Network.bunker3router.eth[3].queue queueBitLength:vector ETV
attr autoWarmupFilter false
attr interpolationmode sample-hold
attr recordingmode vector
attr source "warmup(atomic(constant0(packetPushEnded) + sum(packetLength(packetPushStarted)) - sum(packetLength(packetPulled)) - sum(packetLength(packetRemoved)) - sum(packetLength(packetDropped))))"
attr title "queue bit length"
attr unit b
vector 317 Network.bunker3router.eth[3].mac txPk:vector(packetBytes) ETV
attr interpolationmode none
attr recordingmode vector(packetBytes)
attr source packetSentToLower
attr title "packets transmitted, packetBytes"
vector 318 Network.bunker3host[2].eth[0].mac rxPkOk:vector(packetBytes) ETV
attr interpolationmode none
attr recordingmode vector(packetBytes)
attr source rxPkOk
attr title "packets received OK, packetBytes"
vector 319 Network.bunker3host[2].eth[0].mac passedUpPk:vector(packetBytes) ETV
attr interpolationmode none
attr recordingmode vector(packetBytes)
attr source packetSentToUpper
attr title "packets passed to higher layer, packetBytes"
vector 320 Network.bunker3host[2].ethernet decapPk:vector(packetBytes) ETV
attr interpolationmode none
attr recordingmode vector(packetBytes)
attr source decapPk
attr title "packets decapsulated, packetBytes"
vector 321 Network.bunker3host[2].udp packetReceived:vector(packetBytes) ETV
attr interpolationmode none
attr recordingmode vector(packetBytes)
attr source packetReceived
attr title "packets received, packetBytes"
vector 322 Network.bunker1router.eth[3].queue incomingPacketLengths:vector ETV
attr interpolationmode none
[...]
418	13566	221.7	0
418	13566	221.8	0
418	13566	221.9	0
418	13566	222	0
418	13566	222.1	0
418	13566	222.2	0
418	13566	222.3	0
418	13566	222.4	0
418	13566	222.5	0
418	13566	222.6	0
418	13566	222.7	0
418	13566	222.8	0
418	13566	222.9	0
418	13566	223	0
418	13566	223.1	0
418	13566	223.2	0
418	13566	223.3	0
418	13566	223.4	0
418	13566	223.5	0
418	13566	223.6	0
418	13566	223.7	0
418	13566	223.8	0
418	13566	223.9	0
418	13566	224	0
418	13566	224.1	0
418	13566	224.2	0
418	13566	224.3	0
418	13566	224.4	0
418	13566	224.5	0
418	13566	224.6	0
418	13566	224.7	0
418	13566	224.8	0
418	13566	224.9	0
418	13566	225	0
418	13566	225.1	0
418	13566	225.2	0
418	13566	225.3	0
418	13566	225.4	0
418	13566	225.5	0
418	13566	225.6	0
418	13566	225.7	0
418	13566	225.8	0
418	13566	225.9	0
418	13566	226	0
418	13566	226.1	0
418	13566	226.2	0
418	13566	226.3	0
418	13566	226.4	0
418	13566	226.5	0
418	13566	226.6	0
418	13566	226.7	0
418	13566	226.8	0
418	13566	226.9	0
418	13566	227	0
418	13566	227.1	0
418	13566	227.2	0
418	13566	227.3	0
418	13566	227.4	0
418	13566	227.5	0
418	13566	227.6	0
418	13566	227.7	0
418	13566	227.8	0
418	13566	227.9	0
418	13566	228	0
418	13566	228.1	0
418	13566	228.2	0
418	13566	228.3	0
418	13566	228.4	0
418	13566	228.5	0
418	13566	228.6	0
418	13566	228.7	0
418	13566	228.8	0
418	13566	228.9	0
418	13566	229	0
418	13566	229.1	0
418	13566	229.2	0
418	13566	229.3	0
418	13566	229.4	0
418	13566	229.5	0
418	13566	229.6	0
418	13566	229.7	0
418	13566	229.8	0
418	13566	229.9	0
418	13566	230	0
418	14849	230.1	10240
418	14849	230.2	0
418	14849	230.3	0
418	14849	230.4	0
418	14849	230.5	0
418	14849	230.6	0
418	14849	230.7	0
418	14849	230.8	0
418	14849	230.9	0
418	14849	231	0
418	14849	231.1	0
418	14849	231.2	0
418	14849	231.3	0
418	14849	231.4	0
418	14849	231.5	0
418	14849	231.6	0
418	14849	231.7	0
418	14849	231.8	0
418	14849	231.9	0
418	14849	232	0
418	14849	232.1	0
418	14849	232.2	0
418	14849	232.3	0
418	14849	232.4	0
418	14849	232.5	0
418	14849	232.6	0
418	14849	232.7	0
418	14849	232.8	0
418	14849	232.9	0
418	14849	233	0
418	14849	233.1	0
418	14849	233.2	0
418	14849	233.3	0
418	14849	233.4	0
418	14849	233.5	0
418	14849	233.6	0
418	14849	233.7	0
418	14849	233.8	0
418	14849	233.9	0
418	14849	234	0
418	14849	234.1	0
418	14849	234.2	0
418	14849	234.3	0
418	14849	234.4	0
418	14849	234.5	0
418	14849	234.6	0
418	14849	234.7	0
418	14849	234.8	0
418	14849	234.9	0
418	14849	235	0
418	14849	235.1	0
418	14849	235.2	0
418	14849	235.3	0
418	14849	235.4	0
418	14849	235.5	0
418	14849	235.6	0
418	14849	235.7	0
418	14849	235.8	0
418	14849	235.9	0
418	14849	236	0
418	14849	236.1	0
418	14849	236.2	0
418	14849	236.3	0
418	14849	236.4	0
418	14849	236.5	0
418	14849	236.6	0
418	14849	236.7	0
418	14849	236.8	0
418	14849	236.9	0
418	14849	237	0
418	14849	237.1	0
418	14849	237.2	0
418	14849	237.3	0
418	14849	237.4	0
418	14849	237.5	0
418	14849	237.6	0
418	14849	237.7	0
418	14849	237.8	0
418	14849	237.9	0
418	14849	238	0
418	14849	238.1	0
418	14849	238.2	0
418	14849	238.3	0
418	14849	238.4	0
418	14849	238.5	0
418	14849	238.6	0
418	14849	238.7	0
418	14849	238.8	0
418	14849	238.9	0
418	14849	239	0
418	14849	239.1	0
418	14849	239.2	0
418	14849	239.3	0
418	14849	239.4	0
418	14849	239.5	0
418	14849	239.6	0
418	14849	239.7	0
418	14849	239.8	0
418	14849	239.9	0
418	14849	240	0
418	14849	240.1	0
418	14849	240.2	0
418	14849	240.3	0
418	14849	240.4	0
418	14849	240.5	0
418	14849	240.6	0
418	14849	240.7	0
418	14849	240.8	0
418	14849	240.9	0
418	14849	241	0
418	14849	241.1	0
418	14849	241.2	0
418	14849	241.3	0
418	14849	241.4	0
418	14849	241.5	0
418	14849	241.6	0
418	14849	241.7	0
418	14849	241.8	0
418	14849	241.9	0
418	14849	242	0
418	14849	242.1	0
418	14849	242.2	0
418	14849	242.3	0
418	14849	242.4	0
418	14849	242.5	0
418	14849	242.6	0
418	14849	242.7	0
418	14849	242.8	0
418	14849	242.9	0
418	14849	243	0
418	14849	243.1	0
418	14849	243.2	0
418	14849	243.3	0
418	14849	243.4	0
418	14849	243.5	0
418	14849	243.6	0
418	14849	243.7	0
418	14849	243.8	0
418	14849	243.9	0
418	14849	244	0
418	14849	244.1	0
418	14849	244.2	0
418	14849	244.3	0
418	14849	244.4	0
418	14849	244.5	0
418	14849	244.6	0
418	14849	244.7	0
418	14849	244.8	0
418	14849	244.9	0
418	14849	245	0
418	14849	245.1	0
418	14849	245.2	0
418	14849	245.3	0
418	14849	245.4	0
418	14849	245.5	0
418	14849	245.6	0
418	14849	245.7	0
418	14849	245.8	0
418	14849	245.9	0
418	14849	246	0
418	14849	246.1	0
418	14849	246.2	0
418	14849	246.3	0
418	14849	246.4	0
418	14849	246.5	0
418	14849	246.6	0
418	14849	246.7	0
418	14849	246.8	0
418	14849	246.9	0
418	14849	247	0
418	14849	247.1	0
418	14849	247.2	0
418	14849	247.3	0
418	14849	247.4	0
418	14849	247.5	0
418	14849	247.6	0
418	14849	247.7	0
418	14849	247.8	0
418	14849	247.9	0
418	14849	248	0
418	14849	248.1	0
418	14849	248.2	0
418	14849	248.3	0
418	14849	248.4	0
418	14849	248.5	0
418	14849	248.6	0
418	14849	248.7	0
418	14849	248.8	0
418	14849	248.9	0
418	14849	249	0
418	14849	249.1	0
418	14849	249.2	0
418	14849	249.3	0
418	14849	249.4	0
418	14849	249.5	0
418	14849	249.6	0
418	14849	249.7	0
418	14849	249.8	0
418	14849	249.9	0
418	14849	250	0
418	14849	250.1	0
418	14849	250.2	0
418	14849	250.3	0
418	14849	250.4	0
418	14849	250.5	0
418	14849	250.6	0
418	14849	250.7	0
418	14849	250.8	0
418	14849	250.9	0
418	14849	251	0
418	14849	251.1	0
418	14849	251.2	0
418	14849	251.3	0
418	14849	251.4	0
418	14849	251.5	0
418	14849	251.6	0
418	14849	251.7	0
418	14849	251.8	0
418	14849	251.9	0
418	14849	252	0
418	14849	252.1	0
418	14849	252.2	0
418	14849	252.3	0
418	14849	252.4	0
418	14849	252.5	0
418	14849	252.6	0
418	14849	252.7	0
418	14849	252.8	0
418	14849	252.9	0
418	14849	253	0
418	14849	253.1	0
418	14849	253.2	0
418	14849	253.3	0
418	14849	253.4	0
418	14849	253.5	0
418	14849	253.6	0
418	14849	253.7	0
418	14849	253.8	0
418	14849	253.9	0
418	14849	254	0
418	14849	254.1	0
418	14849	254.2	0
418	14849	254.3	0
418	14849	254.4	0
418	14849	254.5	0
418	14849	254.6	0
418	14849	254.7	0
418	14849	254.8	0
418	14849	254.9	0
418	14849	255	0
418	17268	255.1	55520
418	17268	255.2	0
418	17268	255.3	0
418	17268	255.4	0
418	17268	255.5	0
418	17268	255.6	0
418	17268	255.7	0
418	17268	255.8	0
418	17268	255.9	0
418	17268	256	0
418	17268	256.1	0
418	17268	256.2	0
418	17268	256.3	0
418	17268	256.4	0
418	17268	256.5	0
418	17268	256.6	0
418	17268	256.7	0
418	17268	256.8	0
418	17268	256.9	0
418	17268	257	0
418	17268	257.1	0
418	17268	257.2	0
418	17268	257.3	0
418	17268	257.4	0
418	17268	257.5	0
418	17268	257.6	0
418	17268	257.7	0
418	17268	257.8	0
418	17268	257.9	0
418	17268	258	0
418	17268	258.1	0
418	17268	258.2	0
418	17268	258.3	0
418	17268	258.4	0
418	17268	258.5	0
418	17268	258.6	0
418	17268	258.7	0
418	17268	258.8	0
418	17268	258.9	0
418	17268	259	0
418	17268	259.1	0
418	17268	259.2	0
418	17268	259.3	0
418	17268	259.4	0
418	17268	259.5	0
418	17268	259.6	0
418	17268	259.7	0
418	17268	259.8	0
418	17268	259.9	0
418	17268	260	0
418	17268	260.1	0
418	17268	260.2	0
418	17268	260.3	0
418	17268	260.4	0
418	17268	260.5	0
418	17268	260.6	0
418	17268	260.7	0
418	17268	260.8	0
418	17268	260.9	0
418	17268	261	0
418	17268	261.1	0
418	17268	261.2	0
418	17268	261.3	0
418	17268	261.4	0
418	17268	261.5	0
418	17268	261.6	0
418	17268	261.7	0
418	17268	261.8	0
418	17268	261.9	0
418	17268	262	0
418	17268	262.1	0
418	17268	262.2	0
418	17268	262.3	0
418	17268	262.4	0
418	17268	262.5	0
418	17268	262.6	0
418	17268	262.7	0
418	17268	262.8	0
418	17268	262.9	0
418	17268	263	0
418	17268	263.1	0
418	17268	263.2	0
418	17268	263.3	0
418	17268	263.4	0
418	17268	263.5	0
418	17268	263.6	0
418	17268	263.7	0
418	17268	263.8	0
418	17268	263.9	0
418	17268	264	0
418	17268	264.1	0
418	17268	264.2	0
418	17268	264.3	0
418	17268	264.4	0
418	17268	264.5	0
418	17268	264.6	0
418	17268	264.7	0
418	17268	264.8	0
418	17268	264.9	0
418	17268	265	0
418	17268	265.1	0
418	17268	265.2	0
418	17268	265.3	0
418	17268	265.4	0
418	17268	265.5	0
418	17268	265.6	0
418	17268	265.7	0
418	17268	265.8	0
418	17268	265.9	0
418	17268	266	0
418	17268	266.1	0
418	17268	266.2	0
418	17268	266.3	0
418	17268	266.4	0
418	17268	266.5	0
418	17268	266.6	0
418	17268	266.7	0
418	17268	266.8	0
418	17268	266.9	0
418	17268	267	0
418	17268	267.1	0
418	17268	267.2	0
418	17268	267.3	0
418	17268	267.4	0
418	17268	267.5	0
418	17268	267.6	0
418	17268	267.7	0
418	17268	267.8	0
418	17268	267.9	0
418	17268	268	0
418	17268	268.1	0
418	17268	268.2	0
418	17268	268.3	0
418	17268	268.4	0
418	17268	268.5	0
418	17268	268.6	0
418	17268	268.7	0
418	17268	268.8	0
418	17268	268.9	0
418	17268	269	0
418	17268	269.1	0
418	17268	269.2	0
418	17268	269.3	0
418	17268	269.4	0
418	17268	269.5	0
418	17268	269.6	0
418	17268	269.7	0
418	17268	269.8	0
418	17268	269.9	0
418	17268	270	0
418	17268	270.1	0
418	17268	270.2	0
418	17268	270.3	0
418	17268	270.4	0
418	17268	270.5	0
418	17268	270.6	0
418	17268	270.7	0
418	17268	270.8	0
418	17268	270.9	0
418	17268	271	0
418	17268	271.1	0
418	17268	271.2	0
418	17268	271.3	0
418	17268	271.4	0
418	17268	271.5	0
418	17268	271.6	0
418	17268	271.7	0
418	17268	271.8	0
418	17268	271.9	0
418	17268	272	0
418	17268	272.1	0
418	17268	272.2	0
418	17268	272.3	0
418	17268	272.4	0
418	17268	272.5	0
418	17268	272.6	0
418	17268	272.7	0
418	17268	272.8	0
418	17268	272.9	0
418	17268	273	0
418	17268	273.1	0
418	17268	273.2	0
418	17268	273.3	0
418	17268	273.4	0
418	17268	273.5	0
418	17268	273.6	0
418	17268	273.7	0
418	17268	273.8	0
418	17268	273.9	0
418	17268	274	0
418	17268	274.1	0
418	17268	274.2	0
418	17268	274.3	0
418	17268	274.4	0
418	17268	274.5	0
418	17268	274.6	0
418	17268	274.7	0
418	17268	274.8	0
418	17268	274.9	0
418	17268	275	0
418	17268	275.1	0
418	17268	275.2	0
418	17268	275.3	0
418	17268	275.4	0
418	17268	275.5	0
418	17268	275.6	0
418	17268	275.7	0
418	17268	275.8	0
418	17268	275.9	0
418	17268	276	0
418	17268	276.1	0
418	17268	276.2	0
418	17268	276.3	0
418	17268	276.4	0
418	17268	276.5	0
418	17268	276.6	0
418	17268	276.7	0
418	17268	276.8	0
418	17268	276.9	0
418	17268	277	0
418	17268	277.1	0
418	17268	277.2	0
418	17268	277.3	0
418	17268	277.4	0
418	17268	277.5	0
418	17268	277.6	0
418	17268	277.7	0
418	17268	277.8	0
418	17268	277.9	0
418	17268	278	0
418	17268	278.1	0
418	17268	278.2	0
418	17268	278.3	0
418	17268	278.4	0
418	17268	278.5	0
418	17268	278.6	0
418	17268	278.7	0
418	17268	278.8	0
418	17268	278.9	0
418	17268	279	0
418	17268	279.1	0
418	17268	279.2	0
418	17268	279.3	0
418	17268	279.4	0
418	17268	279.5	0
418	17268	279.6	0
418	17268	279.7	0
418	17268	279.8	0
418	17268	279.9	0
418	17268	280	0
418	17268	280.1	0
418	17268	280.2	0
418	17268	280.3	0
418	17268	280.4	0
418	17268	280.5	0
418	17268	280.6	0
418	17268	280.7	0
418	17268	280.8	0
418	17268	280.9	0
418	17268	281	0
418	17268	281.1	0
418	17268	281.2	0
418	17268	281.3	0
418	17268	281.4	0
418	17268	281.5	0
418	17268	281.6	0
418	17268	281.7	0
418	17268	281.8	0
418	17268	281.9	0
418	17268	282	0
418	17268	282.1	0
418	17268	282.2	0
418	17268	282.3	0
418	17268	282.4	0
418	17268	282.5	0
418	17268	282.6	0
418	17268	282.7	0
418	17268	282.8	0
418	17268	282.9	0
418	17268	283	0
418	17268	283.1	0
418	17268	283.2	0
418	17268	283.3	0
418	17268	283.4	0
418	17268	283.5	0
418	17268	283.6	0
418	17268	283.7	0
418	17268	283.8	0
418	17268	283.9	0
418	17268	284	0
418	17268	284.1	0
418	17268	284.2	0
418	17268	284.3	0
418	17268	284.4	0
418	17268	284.5	0
418	17268	284.6	0
418	17268	284.7	0
418	17268	284.8	0
418	17268	284.9	0
418	17268	285	0
418	17268	285.1	0
418	17268	285.2	0
418	17268	285.3	0
418	17268	285.4	0
418	17268	285.5	0
418	17268	285.6	0
418	17268	285.7	0
418	17268	285.8	0
418	17268	285.9	0
418	17268	286	0
418	17268	286.1	0
418	17268	286.2	0
418	17268	286.3	0
418	17268	286.4	0
418	17268	286.5	0
418	17268	286.6	0
418	17268	286.7	0
418	17268	286.8	0
418	17268	286.9	0
418	17268	287	0
418	17268	287.1	0
418	17268	287.2	0
418	17268	287.3	0
418	17268	287.4	0
418	17268	287.5	0
418	17268	287.6	0
418	17268	287.7	0
418	17268	287.8	0
418	17268	287.9	0
418	17268	288	0
418	17268	288.1	0
418	17268	288.2	0
418	17268	288.3	0
418	17268	288.4	0
418	17268	288.5	0
418	17268	288.6	0
418	17268	288.7	0
418	17268	288.8	0
418	17268	288.9	0
418	17268	289	0
418	17268	289.1	0
418	17268	289.2	0
418	17268	289.3	0
418	17268	289.4	0
418	17268	289.5	0
418	17268	289.6	0
418	17268	289.7	0
418	17268	289.8	0
418	17268	289.9	0
418	17268	290	0
418	17268	290.1	0
418	17268	290.2	0
418	17268	290.3	0
418	17268	290.4	0
418	17268	290.5	0
418	17268	290.6	0
418	17268	290.7	0
418	17268	290.8	0
418	17268	290.9	0
418	17268	291	0
418	17268	291.1	0
418	17268	291.2	0
418	17268	291.3	0
418	17268	291.4	0
418	17268	291.5	0
418	17268	291.6	0
418	17268	291.7	0
418	17268	291.8	0
418	17268	291.9	0
418	17268	292	0
418	17268	292.1	0
418	17268	292.2	0
418	17268	292.3	0
418	17268	292.4	0
418	17268	292.5	0
418	17268	292.6	0
418	17268	292.7	0
418	17268	292.8	0
418	17268	292.9	0
418	17268	293	0
418	17268	293.1	0
418	17268	293.2	0
418	17268	293.3	0
418	17268	293.4	0
418	17268	293.5	0
418	17268	293.6	0
418	17268	293.7	0
418	17268	293.8	0
418	17268	293.9	0
418	17268	294	0
418	17268	294.1	0
418	17268	294.2	0
418	17268	294.3	0
418	17268	294.4	0
418	17268	294.5	0
418	17268	294.6	0
418	17268	294.7	0
418	17268	294.8	0
418	17268	294.9	0
418	17268	295	0
418	17268	295.1	0
418	17268	295.2	0
418	17268	295.3	0
418	17268	295.4	0
418	17268	295.5	0
418	17268	295.6	0
418	17268	295.7	0
418	17268	295.8	0
418	17268	295.9	0
418	17268	296	0
418	17268	296.1	0
418	17268	296.2	0
418	17268	296.3	0
418	17268	296.4	0
418	17268	296.5	0
418	17268	296.6	0
418	17268	296.7	0
418	17268	296.8	0
418	17268	296.9	0
418	17268	297	0
418	17268	297.1	0
418	17268	297.2	0
418	17268	297.3	0
418	17268	297.4	0
418	17268	297.5	0
418	17268	297.6	0
418	17268	297.7	0
418	17268	297.8	0
418	17268	297.9	0
418	17268	298	0
418	17268	298.1	0
418	17268	298.2	0
418	17268	298.3	0
418	17268	298.4	0
418	17268	298.5	0
418	17268	298.6	0
418	17268	298.7	0
418	17268	298.8	0
418	17268	298.9	0
418	17268	299	0
418	17268	299.1	0
418	17268	299.2	0
418	17268	299.3	0
418	17268	299.4	0
418	17268	299.5	0
418	17268	299.6	0
418	17268	299.7	0
418	17268	299.8	0
418	17268	299.9	0
418	17268	300	0
419	2561	35.0000009636	229
419	3204	43.0000019668	476
419	8543	135.000000942	322
419	13566	230.0000004764	128
419	14849	255.0000018348	694
420	2561	35.0000009636	0
420	3204	43.0000019668	0
420	8543	135.000000942	0
420	13566	230.0000004764	0
420	14849	255.0000018348	0
421	2561	35.0000009636	0
421	3204	43.0000019668	0
421	8543	135.000000942	0
421	13566	230.0000004764	0
421	14849	255.0000018348	0
422	2562	35.0000010908	233
422	2757	36.0000025244	366
422	2776	36.0000033404	683
422	3089	42.000002514	526
422	3479	49.000002678	782
422	4315	61.0000009988	585
422	4679	67.0000033116	980
422	5117	76.0000005532	118
422	5823	87.0000011252	92
422	5844	87.0000032812	953
422	5935	89.0000025884	754
422	6361	97.0000014052	839
422	6389	97.0000030588	901
422	7192	113.0000026236	765
422	7412	115.0000014852	846
422	7885	123.0000007348	420
422	8293	131.0000014876	410
422	9137	149.0000025948	756
422	10123	166.000001458	872
422	11420	188.0000004348	81
422	12133	205.0000030972	913
422	12212	206.0000016636	465
422	13823	236.0000023868	691
422	14264	242.000001542	427
422	14455	246.0000011932	318
422	15585	267.0000015196	420
422	15879	274.0000007652	439
422	16658	287.0000010684	279
422	16785	291.0000015524	931
422	17037	295.0000012284	329
423	2564	35.0000011408	233
423	2764	36.0000025744	366
423	2778	36.0000033904	683
423	3091	42.000002564	526
423	3481	49.000002728	782
423	4322	61.0000010488	585
423	4681	67.0000033616	980
423	5119	76.0000006032	118
423	5825	87.0000011752	92
423	5846	87.0000033312	953
423	5937	89.0000026384	754
423	6365	97.0000014552	839
423	6391	97.0000031088	901
423	7194	113.0000026736	765
423	7414	115.0000015352	846
423	7894	123.0000007848	420
423	8295	131.0000015376	410
423	9139	149.0000026448	756
423	10125	166.000001508	872
423	11422	188.0000004848	81
423	12135	205.0000031472	913
423	12214	206.0000017136	465
423	13825	236.0000024368	691
423	14271	242.000001592	427
423	14457	246.0000012432	318
423	15587	267.0000015696	420
423	15881	274.0000008152	439
423	16660	287.0000011184	279
423	16787	291.0000016024	931
423	17039	295.0000012784	329
424	2564	35.0000011408	233
424	2764	36.0000025744	366
424	2778	36.0000033904	683
424	3091	42.000002564	526
424	3481	49.000002728	782
424	4322	61.0000010488	585
424	4681	67.0000033616	980
424	5119	76.0000006032	118
424	5825	87.0000011752	92
424	5846	87.0000033312	953
424	5937	89.0000026384	754
424	6365	97.0000014552	839
424	6391	97.0000031088	901
424	7194	113.0000026736	765
424	7414	115.0000015352	846
424	7894	123.0000007848	420
424	8295	131.0000015376	410
424	9139	149.0000026448	756
424	10125	166.000001508	872
424	11422	188.0000004848	81
424	12135	205.0000031472	913
424	12214	206.0000017136	465
424	13825	236.0000024368	691
424	14271	242.000001592	427
424	14457	246.0000012432	318
424	15587	267.0000015696	420
424	15881	274.0000008152	439
424	16660	287.0000011184	279
424	16787	291.0000016024	931
424	17039	295.0000012784	329
425	2565	35.0000011408	215
425	2765	36.0000025744	348
425	2779	36.0000033904	665
425	3092	42.000002564	508
425	3482	49.000002728	764
425	4323	61.0000010488	567
425	4682	67.0000033616	962
425	5120	76.0000006032	100
425	5826	87.0000011752	74
425	5847	87.0000033312	935
425	5938	89.0000026384	736
425	6366	97.0000014552	821
425	6392	97.0000031088	883
425	7195	113.0000026736	747
425	7415	115.0000015352	828
425	7895	123.0000007848	402
425	8296	131.0000015376	392
425	9140	149.0000026448	738
425	10126	166.000001508	854
425	11423	188.0000004848	63
425	12136	205.0000031472	895
425	12215	206.0000017136	447
425	13826	236.0000024368	673
425	14272	242.000001592	409
425	14458	246.0000012432	300
425	15588	267.0000015696	402
425	15882	274.0000008152	421
425	16661	287.0000011184	261
425	16788	291.0000016024	913
425	17040	295.0000012784	311
426	2567	35.0000011408	195
426	2767	36.0000025744	328
426	2781	36.0000033904	645
426	3094	42.000002564	488
426	3484	49.000002728	744
426	4325	61.0000010488	547
426	4684	67.0000033616	942
426	5122	76.0000006032	80
426	5828	87.0000011752	54
426	5849	87.0000033312	915
426	5940	89.0000026384	716
426	6368	97.0000014552	801
426	6394	97.0000031088	863
426	7197	113.0000026736	727
426	7417	115.0000015352	808
426	7897	123.0000007848	382
426	8298	131.0000015376	372
426	9142	149.0000026448	718
426	10128	166.000001508	834
426	11425	188.0000004848	43
426	12138	205.0000031472	875
426	12217	206.0000017136	427
426	13828	236.0000024368	653
426	14274	242.000001592	389
426	14460	246.0000012432	280
426	15590	267.0000015696	382
426	15884	274.0000008152	401
426	16663	287.0000011184	241
426	16790	291.0000016024	893
426	17042	295.0000012784	291
427	2569	35.0000011532	229
427	3205	43.000002354	476
427	8544	135.000001206	322
427	13567	230.0000005852	128
427	14850	255.0000023964	694
428	2571	35.0000012032	229
428	3207	43.000002404	476
428	8546	135.000001256	322
428	13569	230.0000006352	128
428	14852	255.0000024464	694
429	2571	35.0000012032	229
429	3207	43.000002404	476
429	8546	135.000001256	322
429	13569	230.0000006352	128
429	14852	255.0000024464	694
430	2572	35.0000012032	211
430	3208	43.000002404	458
430	8547	135.000001256	304
430	13570	230.0000006352	110
430	14853	255.0000024464	676
431	2574	35.0000012032	191
431	3210	43.000002404	438
431	8549	135.000001256	284
431	13572	230.0000006352	90
431	14855	255.0000024464	656
432	2814	40	723
432	3251	46	663
432	4328	62	393
432	4819	70	412
432	6102	94	289
432	6673	105	526
432	7620	121	928
432	8120	129	796
432	9774	160	52
432	10424	171	807
432	10786	178	617
432	11670	195	53
432	13574	231	702
432	14066	241	419
432	14520	250	79
432	15633	270	247
432	15982	278	611
432	16382	284	258
433	3030	42.0000006552	480
433	5880	89	708
433	8181	131	364
433	12106	205	867
433	14428	246	272
434	3400	49	925
434	4081	60	518
434	4537	66	337
434	5002	73	247
434	5577	84	234
434	6049	93	449
434	7420	116	496
434	7655	122	315
434	8352	133	584
434	8594	139	51
434	9146	150	304
434	9775	160	369
434	10131	167	596
434	11586	192	429
434	11845	198	989
434	12428	210	517
434	12774	217	380
434	13858	238	250
434	14763	254	187
434	15240	264	644
434	15695	271	582
434	16792	292	313

